
---------- Begin Simulation Statistics ----------
sim_seconds                                  0.000050                       # Number of seconds simulated
sim_ticks                                       50000                       # Number of ticks simulated
final_tick                                      50000                       # Number of ticks from beginning of simulation (restored from checkpoints and never reset)
sim_freq                                   1000000000                       # Frequency of simulated ticks
host_tick_rate                                    300                       # Simulator tick rate (ticks/s)
host_mem_usage                                2189312                       # Number of bytes of host memory used
host_seconds                                   166.87                       # Real time elapsed on the host
system.voltage_domain.voltage                       1                       # Voltage in Volts
system.clk_domain.clock                             1                       # Clock period in ticks
system.mem_ctrls00.pwrStateResidencyTicks::UNDEFINED        50000                       # Cumulative time (in ticks) in various power states
system.mem_ctrls00.priorityMinLatency    0.000000000000                       # per QoS priority minimum request to response latency (s)
system.mem_ctrls00.priorityMaxLatency    0.000000000000                       # per QoS priority maximum request to response latency (s)
system.mem_ctrls00.numReadWriteTurnArounds            0                       # Number of turnarounds from READ to WRITE
system.mem_ctrls00.numWriteReadTurnArounds            0                       # Number of turnarounds from WRITE to READ
system.mem_ctrls00.numStayReadState                 2                       # Number of times bus staying in READ state
system.mem_ctrls00.numStayWriteState                0                       # Number of times bus staying in WRITE state
system.mem_ctrls00.readReqs                         0                       # Number of read requests accepted
system.mem_ctrls00.writeReqs                        0                       # Number of write requests accepted
system.mem_ctrls00.readBursts                       0                       # Number of DRAM read bursts, including those serviced by the write queue
system.mem_ctrls00.writeBursts                      0                       # Number of DRAM write bursts, including those merged in the write queue
system.mem_ctrls00.bytesReadDRAM                    0                       # Total number of bytes read from DRAM
system.mem_ctrls00.bytesReadWrQ                     0                       # Total number of bytes read from write queue
system.mem_ctrls00.bytesWritten                     0                       # Total number of bytes written to DRAM
system.mem_ctrls00.bytesReadSys                     0                       # Total read bytes from the system interface side
system.mem_ctrls00.bytesWrittenSys                  0                       # Total written bytes from the system interface side
system.mem_ctrls00.servicedByWrQ                    0                       # Number of DRAM read bursts serviced by the write queue
system.mem_ctrls00.mergedWrBursts                   0                       # Number of DRAM write bursts merged with an existing one
system.mem_ctrls00.neitherReadNorWriteReqs            0                       # Number of requests that are neither read nor write
system.mem_ctrls00.perBankRdBursts::0               0                       # Per bank write bursts
system.mem_ctrls00.perBankRdBursts::1               0                       # Per bank write bursts
system.mem_ctrls00.perBankRdBursts::2               0                       # Per bank write bursts
system.mem_ctrls00.perBankRdBursts::3               0                       # Per bank write bursts
system.mem_ctrls00.perBankRdBursts::4               0                       # Per bank write bursts
system.mem_ctrls00.perBankRdBursts::5               0                       # Per bank write bursts
system.mem_ctrls00.perBankRdBursts::6               0                       # Per bank write bursts
system.mem_ctrls00.perBankRdBursts::7               0                       # Per bank write bursts
system.mem_ctrls00.perBankRdBursts::8               0                       # Per bank write bursts
system.mem_ctrls00.perBankRdBursts::9               0                       # Per bank write bursts
system.mem_ctrls00.perBankRdBursts::10              0                       # Per bank write bursts
system.mem_ctrls00.perBankRdBursts::11              0                       # Per bank write bursts
system.mem_ctrls00.perBankRdBursts::12              0                       # Per bank write bursts
system.mem_ctrls00.perBankRdBursts::13              0                       # Per bank write bursts
system.mem_ctrls00.perBankRdBursts::14              0                       # Per bank write bursts
system.mem_ctrls00.perBankRdBursts::15              0                       # Per bank write bursts
system.mem_ctrls00.perBankWrBursts::0               0                       # Per bank write bursts
system.mem_ctrls00.perBankWrBursts::1               0                       # Per bank write bursts
system.mem_ctrls00.perBankWrBursts::2               0                       # Per bank write bursts
system.mem_ctrls00.perBankWrBursts::3               0                       # Per bank write bursts
system.mem_ctrls00.perBankWrBursts::4               0                       # Per bank write bursts
system.mem_ctrls00.perBankWrBursts::5               0                       # Per bank write bursts
system.mem_ctrls00.perBankWrBursts::6               0                       # Per bank write bursts
system.mem_ctrls00.perBankWrBursts::7               0                       # Per bank write bursts
system.mem_ctrls00.perBankWrBursts::8               0                       # Per bank write bursts
system.mem_ctrls00.perBankWrBursts::9               0                       # Per bank write bursts
system.mem_ctrls00.perBankWrBursts::10              0                       # Per bank write bursts
system.mem_ctrls00.perBankWrBursts::11              0                       # Per bank write bursts
system.mem_ctrls00.perBankWrBursts::12              0                       # Per bank write bursts
system.mem_ctrls00.perBankWrBursts::13              0                       # Per bank write bursts
system.mem_ctrls00.perBankWrBursts::14              0                       # Per bank write bursts
system.mem_ctrls00.perBankWrBursts::15              0                       # Per bank write bursts
system.mem_ctrls00.numRdRetry                       0                       # Number of times read queue was full causing retry
system.mem_ctrls00.numWrRetry                       0                       # Number of times write queue was full causing retry
system.mem_ctrls00.totGap                           0                       # Total gap between requests
system.mem_ctrls00.readPktSize::0                   0                       # Read request sizes (log2)
system.mem_ctrls00.readPktSize::1                   0                       # Read request sizes (log2)
system.mem_ctrls00.readPktSize::2                   0                       # Read request sizes (log2)
system.mem_ctrls00.readPktSize::3                   0                       # Read request sizes (log2)
system.mem_ctrls00.readPktSize::4                   0                       # Read request sizes (log2)
system.mem_ctrls00.readPktSize::5                   0                       # Read request sizes (log2)
system.mem_ctrls00.readPktSize::6                   0                       # Read request sizes (log2)
system.mem_ctrls00.writePktSize::0                  0                       # Write request sizes (log2)
system.mem_ctrls00.writePktSize::1                  0                       # Write request sizes (log2)
system.mem_ctrls00.writePktSize::2                  0                       # Write request sizes (log2)
system.mem_ctrls00.writePktSize::3                  0                       # Write request sizes (log2)
system.mem_ctrls00.writePktSize::4                  0                       # Write request sizes (log2)
system.mem_ctrls00.writePktSize::5                  0                       # Write request sizes (log2)
system.mem_ctrls00.writePktSize::6                  0                       # Write request sizes (log2)
system.mem_ctrls00.rdQLenPdf::0                     0                       # What read queue length does an incoming req see
system.mem_ctrls00.rdQLenPdf::1                     0                       # What read queue length does an incoming req see
system.mem_ctrls00.rdQLenPdf::2                     0                       # What read queue length does an incoming req see
system.mem_ctrls00.rdQLenPdf::3                     0                       # What read queue length does an incoming req see
system.mem_ctrls00.rdQLenPdf::4                     0                       # What read queue length does an incoming req see
system.mem_ctrls00.rdQLenPdf::5                     0                       # What read queue length does an incoming req see
system.mem_ctrls00.rdQLenPdf::6                     0                       # What read queue length does an incoming req see
system.mem_ctrls00.rdQLenPdf::7                     0                       # What read queue length does an incoming req see
system.mem_ctrls00.rdQLenPdf::8                     0                       # What read queue length does an incoming req see
system.mem_ctrls00.rdQLenPdf::9                     0                       # What read queue length does an incoming req see
system.mem_ctrls00.rdQLenPdf::10                    0                       # What read queue length does an incoming req see
system.mem_ctrls00.rdQLenPdf::11                    0                       # What read queue length does an incoming req see
system.mem_ctrls00.rdQLenPdf::12                    0                       # What read queue length does an incoming req see
system.mem_ctrls00.rdQLenPdf::13                    0                       # What read queue length does an incoming req see
system.mem_ctrls00.rdQLenPdf::14                    0                       # What read queue length does an incoming req see
system.mem_ctrls00.rdQLenPdf::15                    0                       # What read queue length does an incoming req see
system.mem_ctrls00.rdQLenPdf::16                    0                       # What read queue length does an incoming req see
system.mem_ctrls00.rdQLenPdf::17                    0                       # What read queue length does an incoming req see
system.mem_ctrls00.rdQLenPdf::18                    0                       # What read queue length does an incoming req see
system.mem_ctrls00.rdQLenPdf::19                    0                       # What read queue length does an incoming req see
system.mem_ctrls00.rdQLenPdf::20                    0                       # What read queue length does an incoming req see
system.mem_ctrls00.rdQLenPdf::21                    0                       # What read queue length does an incoming req see
system.mem_ctrls00.rdQLenPdf::22                    0                       # What read queue length does an incoming req see
system.mem_ctrls00.rdQLenPdf::23                    0                       # What read queue length does an incoming req see
system.mem_ctrls00.rdQLenPdf::24                    0                       # What read queue length does an incoming req see
system.mem_ctrls00.rdQLenPdf::25                    0                       # What read queue length does an incoming req see
system.mem_ctrls00.rdQLenPdf::26                    0                       # What read queue length does an incoming req see
system.mem_ctrls00.rdQLenPdf::27                    0                       # What read queue length does an incoming req see
system.mem_ctrls00.rdQLenPdf::28                    0                       # What read queue length does an incoming req see
system.mem_ctrls00.rdQLenPdf::29                    0                       # What read queue length does an incoming req see
system.mem_ctrls00.rdQLenPdf::30                    0                       # What read queue length does an incoming req see
system.mem_ctrls00.rdQLenPdf::31                    0                       # What read queue length does an incoming req see
system.mem_ctrls00.wrQLenPdf::0                     0                       # What write queue length does an incoming req see
system.mem_ctrls00.wrQLenPdf::1                     0                       # What write queue length does an incoming req see
system.mem_ctrls00.wrQLenPdf::2                     0                       # What write queue length does an incoming req see
system.mem_ctrls00.wrQLenPdf::3                     0                       # What write queue length does an incoming req see
system.mem_ctrls00.wrQLenPdf::4                     0                       # What write queue length does an incoming req see
system.mem_ctrls00.wrQLenPdf::5                     0                       # What write queue length does an incoming req see
system.mem_ctrls00.wrQLenPdf::6                     0                       # What write queue length does an incoming req see
system.mem_ctrls00.wrQLenPdf::7                     0                       # What write queue length does an incoming req see
system.mem_ctrls00.wrQLenPdf::8                     0                       # What write queue length does an incoming req see
system.mem_ctrls00.wrQLenPdf::9                     0                       # What write queue length does an incoming req see
system.mem_ctrls00.wrQLenPdf::10                    0                       # What write queue length does an incoming req see
system.mem_ctrls00.wrQLenPdf::11                    0                       # What write queue length does an incoming req see
system.mem_ctrls00.wrQLenPdf::12                    0                       # What write queue length does an incoming req see
system.mem_ctrls00.wrQLenPdf::13                    0                       # What write queue length does an incoming req see
system.mem_ctrls00.wrQLenPdf::14                    0                       # What write queue length does an incoming req see
system.mem_ctrls00.wrQLenPdf::15                    0                       # What write queue length does an incoming req see
system.mem_ctrls00.wrQLenPdf::16                    0                       # What write queue length does an incoming req see
system.mem_ctrls00.wrQLenPdf::17                    0                       # What write queue length does an incoming req see
system.mem_ctrls00.wrQLenPdf::18                    0                       # What write queue length does an incoming req see
system.mem_ctrls00.wrQLenPdf::19                    0                       # What write queue length does an incoming req see
system.mem_ctrls00.wrQLenPdf::20                    0                       # What write queue length does an incoming req see
system.mem_ctrls00.wrQLenPdf::21                    0                       # What write queue length does an incoming req see
system.mem_ctrls00.wrQLenPdf::22                    0                       # What write queue length does an incoming req see
system.mem_ctrls00.wrQLenPdf::23                    0                       # What write queue length does an incoming req see
system.mem_ctrls00.wrQLenPdf::24                    0                       # What write queue length does an incoming req see
system.mem_ctrls00.wrQLenPdf::25                    0                       # What write queue length does an incoming req see
system.mem_ctrls00.wrQLenPdf::26                    0                       # What write queue length does an incoming req see
system.mem_ctrls00.wrQLenPdf::27                    0                       # What write queue length does an incoming req see
system.mem_ctrls00.wrQLenPdf::28                    0                       # What write queue length does an incoming req see
system.mem_ctrls00.wrQLenPdf::29                    0                       # What write queue length does an incoming req see
system.mem_ctrls00.wrQLenPdf::30                    0                       # What write queue length does an incoming req see
system.mem_ctrls00.wrQLenPdf::31                    0                       # What write queue length does an incoming req see
system.mem_ctrls00.wrQLenPdf::32                    0                       # What write queue length does an incoming req see
system.mem_ctrls00.wrQLenPdf::33                    0                       # What write queue length does an incoming req see
system.mem_ctrls00.wrQLenPdf::34                    0                       # What write queue length does an incoming req see
system.mem_ctrls00.wrQLenPdf::35                    0                       # What write queue length does an incoming req see
system.mem_ctrls00.wrQLenPdf::36                    0                       # What write queue length does an incoming req see
system.mem_ctrls00.wrQLenPdf::37                    0                       # What write queue length does an incoming req see
system.mem_ctrls00.wrQLenPdf::38                    0                       # What write queue length does an incoming req see
system.mem_ctrls00.wrQLenPdf::39                    0                       # What write queue length does an incoming req see
system.mem_ctrls00.wrQLenPdf::40                    0                       # What write queue length does an incoming req see
system.mem_ctrls00.wrQLenPdf::41                    0                       # What write queue length does an incoming req see
system.mem_ctrls00.wrQLenPdf::42                    0                       # What write queue length does an incoming req see
system.mem_ctrls00.wrQLenPdf::43                    0                       # What write queue length does an incoming req see
system.mem_ctrls00.wrQLenPdf::44                    0                       # What write queue length does an incoming req see
system.mem_ctrls00.wrQLenPdf::45                    0                       # What write queue length does an incoming req see
system.mem_ctrls00.wrQLenPdf::46                    0                       # What write queue length does an incoming req see
system.mem_ctrls00.wrQLenPdf::47                    0                       # What write queue length does an incoming req see
system.mem_ctrls00.wrQLenPdf::48                    0                       # What write queue length does an incoming req see
system.mem_ctrls00.wrQLenPdf::49                    0                       # What write queue length does an incoming req see
system.mem_ctrls00.wrQLenPdf::50                    0                       # What write queue length does an incoming req see
system.mem_ctrls00.wrQLenPdf::51                    0                       # What write queue length does an incoming req see
system.mem_ctrls00.wrQLenPdf::52                    0                       # What write queue length does an incoming req see
system.mem_ctrls00.wrQLenPdf::53                    0                       # What write queue length does an incoming req see
system.mem_ctrls00.wrQLenPdf::54                    0                       # What write queue length does an incoming req see
system.mem_ctrls00.wrQLenPdf::55                    0                       # What write queue length does an incoming req see
system.mem_ctrls00.wrQLenPdf::56                    0                       # What write queue length does an incoming req see
system.mem_ctrls00.wrQLenPdf::57                    0                       # What write queue length does an incoming req see
system.mem_ctrls00.wrQLenPdf::58                    0                       # What write queue length does an incoming req see
system.mem_ctrls00.wrQLenPdf::59                    0                       # What write queue length does an incoming req see
system.mem_ctrls00.wrQLenPdf::60                    0                       # What write queue length does an incoming req see
system.mem_ctrls00.wrQLenPdf::61                    0                       # What write queue length does an incoming req see
system.mem_ctrls00.wrQLenPdf::62                    0                       # What write queue length does an incoming req see
system.mem_ctrls00.wrQLenPdf::63                    0                       # What write queue length does an incoming req see
system.mem_ctrls00.totQLat                          0                       # Total ticks spent queuing
system.mem_ctrls00.totMemAccLat                     0                       # Total ticks spent from burst creation until serviced by the DRAM
system.mem_ctrls00.totBusLat                        0                       # Total ticks spent in databus transfers
system.mem_ctrls00.avgQLat                        nan                       # Average queueing delay per DRAM burst
system.mem_ctrls00.avgBusLat                      nan                       # Average bus latency per DRAM burst
system.mem_ctrls00.avgMemAccLat                   nan                       # Average memory access latency per DRAM burst
system.mem_ctrls00.avgRdBW                       0.00                       # Average DRAM read bandwidth in MiByte/s
system.mem_ctrls00.avgWrBW                       0.00                       # Average achieved write bandwidth in MiByte/s
system.mem_ctrls00.avgRdBWSys                    0.00                       # Average system read bandwidth in MiByte/s
system.mem_ctrls00.avgWrBWSys                    0.00                       # Average system write bandwidth in MiByte/s
system.mem_ctrls00.peakBW                    12800.00                       # Theoretical peak bandwidth in MiByte/s
system.mem_ctrls00.busUtil                       0.00                       # Data bus utilization in percentage
system.mem_ctrls00.busUtilRead                   0.00                       # Data bus utilization in percentage for reads
system.mem_ctrls00.busUtilWrite                  0.00                       # Data bus utilization in percentage for writes
system.mem_ctrls00.avgRdQLen                     0.00                       # Average read queue length when enqueuing
system.mem_ctrls00.avgWrQLen                     0.00                       # Average write queue length when enqueuing
system.mem_ctrls00.readRowHits                      0                       # Number of row buffer hits during reads
system.mem_ctrls00.writeRowHits                     0                       # Number of row buffer hits during writes
system.mem_ctrls00.readRowHitRate                 nan                       # Row buffer hit rate for reads
system.mem_ctrls00.writeRowHitRate                nan                       # Row buffer hit rate for writes
system.mem_ctrls00.avgGap                         nan                       # Average gap between requests
system.mem_ctrls00.pageHitRate                    nan                       # Row buffer hit rate, read and write combined
system.mem_ctrls00_0.actEnergy                      0                       # Energy for activate commands per rank (pJ)
system.mem_ctrls00_0.preEnergy                      0                       # Energy for precharge commands per rank (pJ)
system.mem_ctrls00_0.readEnergy                     0                       # Energy for read commands per rank (pJ)
system.mem_ctrls00_0.writeEnergy                    0                       # Energy for write commands per rank (pJ)
system.mem_ctrls00_0.refreshEnergy       614640.000000                       # Energy for refresh commands per rank (pJ)
system.mem_ctrls00_0.actBackEnergy             112176                       # Energy for active background per rank (pJ)
system.mem_ctrls00_0.preBackEnergy            2997504                       # Energy for precharge background per rank (pJ)
system.mem_ctrls00_0.actPowerDownEnergy             0                       # Energy for active power-down per rank (pJ)
system.mem_ctrls00_0.prePowerDownEnergy       2889984                       # Energy for precharge power-down per rank (pJ)
system.mem_ctrls00_0.selfRefreshEnergy        8813520                       # Energy for self refresh per rank (pJ)
system.mem_ctrls00_0.totalEnergy             15427824                       # Total energy per rank (pJ)
system.mem_ctrls00_0.averagePower          308.556480                       # Core power per rank (mW)
system.mem_ctrls00_0.totalIdleTime               7526                       # Total Idle time Per DRAM Rank
system.mem_ctrls00_0.memoryStateTime::IDLE         7792                       # Time in different power states
system.mem_ctrls00_0.memoryStateTime::REF          260                       # Time in different power states
system.mem_ctrls00_0.memoryStateTime::SREF        34422                       # Time in different power states
system.mem_ctrls00_0.memoryStateTime::PRE_PDN         7526                       # Time in different power states
system.mem_ctrls00_0.memoryStateTime::ACT            0                       # Time in different power states
system.mem_ctrls00_0.memoryStateTime::ACT_PDN            0                       # Time in different power states
system.mem_ctrls00_1.actEnergy                      0                       # Energy for activate commands per rank (pJ)
system.mem_ctrls00_1.preEnergy                      0                       # Energy for precharge commands per rank (pJ)
system.mem_ctrls00_1.readEnergy                     0                       # Energy for read commands per rank (pJ)
system.mem_ctrls00_1.writeEnergy                    0                       # Energy for write commands per rank (pJ)
system.mem_ctrls00_1.refreshEnergy       614640.000000                       # Energy for refresh commands per rank (pJ)
system.mem_ctrls00_1.actBackEnergy             112176                       # Energy for active background per rank (pJ)
system.mem_ctrls00_1.preBackEnergy            2997504                       # Energy for precharge background per rank (pJ)
system.mem_ctrls00_1.actPowerDownEnergy             0                       # Energy for active power-down per rank (pJ)
system.mem_ctrls00_1.prePowerDownEnergy       2889984                       # Energy for precharge power-down per rank (pJ)
system.mem_ctrls00_1.selfRefreshEnergy        8813520                       # Energy for self refresh per rank (pJ)
system.mem_ctrls00_1.totalEnergy             15427824                       # Total energy per rank (pJ)
system.mem_ctrls00_1.averagePower          308.556480                       # Core power per rank (mW)
system.mem_ctrls00_1.totalIdleTime               7526                       # Total Idle time Per DRAM Rank
system.mem_ctrls00_1.memoryStateTime::IDLE         7792                       # Time in different power states
system.mem_ctrls00_1.memoryStateTime::REF          260                       # Time in different power states
system.mem_ctrls00_1.memoryStateTime::SREF        34422                       # Time in different power states
system.mem_ctrls00_1.memoryStateTime::PRE_PDN         7526                       # Time in different power states
system.mem_ctrls00_1.memoryStateTime::ACT            0                       # Time in different power states
system.mem_ctrls00_1.memoryStateTime::ACT_PDN            0                       # Time in different power states
system.mem_ctrls01.pwrStateResidencyTicks::UNDEFINED        50000                       # Cumulative time (in ticks) in various power states
system.mem_ctrls01.priorityMinLatency    0.000000000000                       # per QoS priority minimum request to response latency (s)
system.mem_ctrls01.priorityMaxLatency    0.000000000000                       # per QoS priority maximum request to response latency (s)
system.mem_ctrls01.numReadWriteTurnArounds            0                       # Number of turnarounds from READ to WRITE
system.mem_ctrls01.numWriteReadTurnArounds            0                       # Number of turnarounds from WRITE to READ
system.mem_ctrls01.numStayReadState                 2                       # Number of times bus staying in READ state
system.mem_ctrls01.numStayWriteState                0                       # Number of times bus staying in WRITE state
system.mem_ctrls01.readReqs                         0                       # Number of read requests accepted
system.mem_ctrls01.writeReqs                        0                       # Number of write requests accepted
system.mem_ctrls01.readBursts                       0                       # Number of DRAM read bursts, including those serviced by the write queue
system.mem_ctrls01.writeBursts                      0                       # Number of DRAM write bursts, including those merged in the write queue
system.mem_ctrls01.bytesReadDRAM                    0                       # Total number of bytes read from DRAM
system.mem_ctrls01.bytesReadWrQ                     0                       # Total number of bytes read from write queue
system.mem_ctrls01.bytesWritten                     0                       # Total number of bytes written to DRAM
system.mem_ctrls01.bytesReadSys                     0                       # Total read bytes from the system interface side
system.mem_ctrls01.bytesWrittenSys                  0                       # Total written bytes from the system interface side
system.mem_ctrls01.servicedByWrQ                    0                       # Number of DRAM read bursts serviced by the write queue
system.mem_ctrls01.mergedWrBursts                   0                       # Number of DRAM write bursts merged with an existing one
system.mem_ctrls01.neitherReadNorWriteReqs            0                       # Number of requests that are neither read nor write
system.mem_ctrls01.perBankRdBursts::0               0                       # Per bank write bursts
system.mem_ctrls01.perBankRdBursts::1               0                       # Per bank write bursts
system.mem_ctrls01.perBankRdBursts::2               0                       # Per bank write bursts
system.mem_ctrls01.perBankRdBursts::3               0                       # Per bank write bursts
system.mem_ctrls01.perBankRdBursts::4               0                       # Per bank write bursts
system.mem_ctrls01.perBankRdBursts::5               0                       # Per bank write bursts
system.mem_ctrls01.perBankRdBursts::6               0                       # Per bank write bursts
system.mem_ctrls01.perBankRdBursts::7               0                       # Per bank write bursts
system.mem_ctrls01.perBankRdBursts::8               0                       # Per bank write bursts
system.mem_ctrls01.perBankRdBursts::9               0                       # Per bank write bursts
system.mem_ctrls01.perBankRdBursts::10              0                       # Per bank write bursts
system.mem_ctrls01.perBankRdBursts::11              0                       # Per bank write bursts
system.mem_ctrls01.perBankRdBursts::12              0                       # Per bank write bursts
system.mem_ctrls01.perBankRdBursts::13              0                       # Per bank write bursts
system.mem_ctrls01.perBankRdBursts::14              0                       # Per bank write bursts
system.mem_ctrls01.perBankRdBursts::15              0                       # Per bank write bursts
system.mem_ctrls01.perBankWrBursts::0               0                       # Per bank write bursts
system.mem_ctrls01.perBankWrBursts::1               0                       # Per bank write bursts
system.mem_ctrls01.perBankWrBursts::2               0                       # Per bank write bursts
system.mem_ctrls01.perBankWrBursts::3               0                       # Per bank write bursts
system.mem_ctrls01.perBankWrBursts::4               0                       # Per bank write bursts
system.mem_ctrls01.perBankWrBursts::5               0                       # Per bank write bursts
system.mem_ctrls01.perBankWrBursts::6               0                       # Per bank write bursts
system.mem_ctrls01.perBankWrBursts::7               0                       # Per bank write bursts
system.mem_ctrls01.perBankWrBursts::8               0                       # Per bank write bursts
system.mem_ctrls01.perBankWrBursts::9               0                       # Per bank write bursts
system.mem_ctrls01.perBankWrBursts::10              0                       # Per bank write bursts
system.mem_ctrls01.perBankWrBursts::11              0                       # Per bank write bursts
system.mem_ctrls01.perBankWrBursts::12              0                       # Per bank write bursts
system.mem_ctrls01.perBankWrBursts::13              0                       # Per bank write bursts
system.mem_ctrls01.perBankWrBursts::14              0                       # Per bank write bursts
system.mem_ctrls01.perBankWrBursts::15              0                       # Per bank write bursts
system.mem_ctrls01.numRdRetry                       0                       # Number of times read queue was full causing retry
system.mem_ctrls01.numWrRetry                       0                       # Number of times write queue was full causing retry
system.mem_ctrls01.totGap                           0                       # Total gap between requests
system.mem_ctrls01.readPktSize::0                   0                       # Read request sizes (log2)
system.mem_ctrls01.readPktSize::1                   0                       # Read request sizes (log2)
system.mem_ctrls01.readPktSize::2                   0                       # Read request sizes (log2)
system.mem_ctrls01.readPktSize::3                   0                       # Read request sizes (log2)
system.mem_ctrls01.readPktSize::4                   0                       # Read request sizes (log2)
system.mem_ctrls01.readPktSize::5                   0                       # Read request sizes (log2)
system.mem_ctrls01.readPktSize::6                   0                       # Read request sizes (log2)
system.mem_ctrls01.writePktSize::0                  0                       # Write request sizes (log2)
system.mem_ctrls01.writePktSize::1                  0                       # Write request sizes (log2)
system.mem_ctrls01.writePktSize::2                  0                       # Write request sizes (log2)
system.mem_ctrls01.writePktSize::3                  0                       # Write request sizes (log2)
system.mem_ctrls01.writePktSize::4                  0                       # Write request sizes (log2)
system.mem_ctrls01.writePktSize::5                  0                       # Write request sizes (log2)
system.mem_ctrls01.writePktSize::6                  0                       # Write request sizes (log2)
system.mem_ctrls01.rdQLenPdf::0                     0                       # What read queue length does an incoming req see
system.mem_ctrls01.rdQLenPdf::1                     0                       # What read queue length does an incoming req see
system.mem_ctrls01.rdQLenPdf::2                     0                       # What read queue length does an incoming req see
system.mem_ctrls01.rdQLenPdf::3                     0                       # What read queue length does an incoming req see
system.mem_ctrls01.rdQLenPdf::4                     0                       # What read queue length does an incoming req see
system.mem_ctrls01.rdQLenPdf::5                     0                       # What read queue length does an incoming req see
system.mem_ctrls01.rdQLenPdf::6                     0                       # What read queue length does an incoming req see
system.mem_ctrls01.rdQLenPdf::7                     0                       # What read queue length does an incoming req see
system.mem_ctrls01.rdQLenPdf::8                     0                       # What read queue length does an incoming req see
system.mem_ctrls01.rdQLenPdf::9                     0                       # What read queue length does an incoming req see
system.mem_ctrls01.rdQLenPdf::10                    0                       # What read queue length does an incoming req see
system.mem_ctrls01.rdQLenPdf::11                    0                       # What read queue length does an incoming req see
system.mem_ctrls01.rdQLenPdf::12                    0                       # What read queue length does an incoming req see
system.mem_ctrls01.rdQLenPdf::13                    0                       # What read queue length does an incoming req see
system.mem_ctrls01.rdQLenPdf::14                    0                       # What read queue length does an incoming req see
system.mem_ctrls01.rdQLenPdf::15                    0                       # What read queue length does an incoming req see
system.mem_ctrls01.rdQLenPdf::16                    0                       # What read queue length does an incoming req see
system.mem_ctrls01.rdQLenPdf::17                    0                       # What read queue length does an incoming req see
system.mem_ctrls01.rdQLenPdf::18                    0                       # What read queue length does an incoming req see
system.mem_ctrls01.rdQLenPdf::19                    0                       # What read queue length does an incoming req see
system.mem_ctrls01.rdQLenPdf::20                    0                       # What read queue length does an incoming req see
system.mem_ctrls01.rdQLenPdf::21                    0                       # What read queue length does an incoming req see
system.mem_ctrls01.rdQLenPdf::22                    0                       # What read queue length does an incoming req see
system.mem_ctrls01.rdQLenPdf::23                    0                       # What read queue length does an incoming req see
system.mem_ctrls01.rdQLenPdf::24                    0                       # What read queue length does an incoming req see
system.mem_ctrls01.rdQLenPdf::25                    0                       # What read queue length does an incoming req see
system.mem_ctrls01.rdQLenPdf::26                    0                       # What read queue length does an incoming req see
system.mem_ctrls01.rdQLenPdf::27                    0                       # What read queue length does an incoming req see
system.mem_ctrls01.rdQLenPdf::28                    0                       # What read queue length does an incoming req see
system.mem_ctrls01.rdQLenPdf::29                    0                       # What read queue length does an incoming req see
system.mem_ctrls01.rdQLenPdf::30                    0                       # What read queue length does an incoming req see
system.mem_ctrls01.rdQLenPdf::31                    0                       # What read queue length does an incoming req see
system.mem_ctrls01.wrQLenPdf::0                     0                       # What write queue length does an incoming req see
system.mem_ctrls01.wrQLenPdf::1                     0                       # What write queue length does an incoming req see
system.mem_ctrls01.wrQLenPdf::2                     0                       # What write queue length does an incoming req see
system.mem_ctrls01.wrQLenPdf::3                     0                       # What write queue length does an incoming req see
system.mem_ctrls01.wrQLenPdf::4                     0                       # What write queue length does an incoming req see
system.mem_ctrls01.wrQLenPdf::5                     0                       # What write queue length does an incoming req see
system.mem_ctrls01.wrQLenPdf::6                     0                       # What write queue length does an incoming req see
system.mem_ctrls01.wrQLenPdf::7                     0                       # What write queue length does an incoming req see
system.mem_ctrls01.wrQLenPdf::8                     0                       # What write queue length does an incoming req see
system.mem_ctrls01.wrQLenPdf::9                     0                       # What write queue length does an incoming req see
system.mem_ctrls01.wrQLenPdf::10                    0                       # What write queue length does an incoming req see
system.mem_ctrls01.wrQLenPdf::11                    0                       # What write queue length does an incoming req see
system.mem_ctrls01.wrQLenPdf::12                    0                       # What write queue length does an incoming req see
system.mem_ctrls01.wrQLenPdf::13                    0                       # What write queue length does an incoming req see
system.mem_ctrls01.wrQLenPdf::14                    0                       # What write queue length does an incoming req see
system.mem_ctrls01.wrQLenPdf::15                    0                       # What write queue length does an incoming req see
system.mem_ctrls01.wrQLenPdf::16                    0                       # What write queue length does an incoming req see
system.mem_ctrls01.wrQLenPdf::17                    0                       # What write queue length does an incoming req see
system.mem_ctrls01.wrQLenPdf::18                    0                       # What write queue length does an incoming req see
system.mem_ctrls01.wrQLenPdf::19                    0                       # What write queue length does an incoming req see
system.mem_ctrls01.wrQLenPdf::20                    0                       # What write queue length does an incoming req see
system.mem_ctrls01.wrQLenPdf::21                    0                       # What write queue length does an incoming req see
system.mem_ctrls01.wrQLenPdf::22                    0                       # What write queue length does an incoming req see
system.mem_ctrls01.wrQLenPdf::23                    0                       # What write queue length does an incoming req see
system.mem_ctrls01.wrQLenPdf::24                    0                       # What write queue length does an incoming req see
system.mem_ctrls01.wrQLenPdf::25                    0                       # What write queue length does an incoming req see
system.mem_ctrls01.wrQLenPdf::26                    0                       # What write queue length does an incoming req see
system.mem_ctrls01.wrQLenPdf::27                    0                       # What write queue length does an incoming req see
system.mem_ctrls01.wrQLenPdf::28                    0                       # What write queue length does an incoming req see
system.mem_ctrls01.wrQLenPdf::29                    0                       # What write queue length does an incoming req see
system.mem_ctrls01.wrQLenPdf::30                    0                       # What write queue length does an incoming req see
system.mem_ctrls01.wrQLenPdf::31                    0                       # What write queue length does an incoming req see
system.mem_ctrls01.wrQLenPdf::32                    0                       # What write queue length does an incoming req see
system.mem_ctrls01.wrQLenPdf::33                    0                       # What write queue length does an incoming req see
system.mem_ctrls01.wrQLenPdf::34                    0                       # What write queue length does an incoming req see
system.mem_ctrls01.wrQLenPdf::35                    0                       # What write queue length does an incoming req see
system.mem_ctrls01.wrQLenPdf::36                    0                       # What write queue length does an incoming req see
system.mem_ctrls01.wrQLenPdf::37                    0                       # What write queue length does an incoming req see
system.mem_ctrls01.wrQLenPdf::38                    0                       # What write queue length does an incoming req see
system.mem_ctrls01.wrQLenPdf::39                    0                       # What write queue length does an incoming req see
system.mem_ctrls01.wrQLenPdf::40                    0                       # What write queue length does an incoming req see
system.mem_ctrls01.wrQLenPdf::41                    0                       # What write queue length does an incoming req see
system.mem_ctrls01.wrQLenPdf::42                    0                       # What write queue length does an incoming req see
system.mem_ctrls01.wrQLenPdf::43                    0                       # What write queue length does an incoming req see
system.mem_ctrls01.wrQLenPdf::44                    0                       # What write queue length does an incoming req see
system.mem_ctrls01.wrQLenPdf::45                    0                       # What write queue length does an incoming req see
system.mem_ctrls01.wrQLenPdf::46                    0                       # What write queue length does an incoming req see
system.mem_ctrls01.wrQLenPdf::47                    0                       # What write queue length does an incoming req see
system.mem_ctrls01.wrQLenPdf::48                    0                       # What write queue length does an incoming req see
system.mem_ctrls01.wrQLenPdf::49                    0                       # What write queue length does an incoming req see
system.mem_ctrls01.wrQLenPdf::50                    0                       # What write queue length does an incoming req see
system.mem_ctrls01.wrQLenPdf::51                    0                       # What write queue length does an incoming req see
system.mem_ctrls01.wrQLenPdf::52                    0                       # What write queue length does an incoming req see
system.mem_ctrls01.wrQLenPdf::53                    0                       # What write queue length does an incoming req see
system.mem_ctrls01.wrQLenPdf::54                    0                       # What write queue length does an incoming req see
system.mem_ctrls01.wrQLenPdf::55                    0                       # What write queue length does an incoming req see
system.mem_ctrls01.wrQLenPdf::56                    0                       # What write queue length does an incoming req see
system.mem_ctrls01.wrQLenPdf::57                    0                       # What write queue length does an incoming req see
system.mem_ctrls01.wrQLenPdf::58                    0                       # What write queue length does an incoming req see
system.mem_ctrls01.wrQLenPdf::59                    0                       # What write queue length does an incoming req see
system.mem_ctrls01.wrQLenPdf::60                    0                       # What write queue length does an incoming req see
system.mem_ctrls01.wrQLenPdf::61                    0                       # What write queue length does an incoming req see
system.mem_ctrls01.wrQLenPdf::62                    0                       # What write queue length does an incoming req see
system.mem_ctrls01.wrQLenPdf::63                    0                       # What write queue length does an incoming req see
system.mem_ctrls01.totQLat                          0                       # Total ticks spent queuing
system.mem_ctrls01.totMemAccLat                     0                       # Total ticks spent from burst creation until serviced by the DRAM
system.mem_ctrls01.totBusLat                        0                       # Total ticks spent in databus transfers
system.mem_ctrls01.avgQLat                        nan                       # Average queueing delay per DRAM burst
system.mem_ctrls01.avgBusLat                      nan                       # Average bus latency per DRAM burst
system.mem_ctrls01.avgMemAccLat                   nan                       # Average memory access latency per DRAM burst
system.mem_ctrls01.avgRdBW                       0.00                       # Average DRAM read bandwidth in MiByte/s
system.mem_ctrls01.avgWrBW                       0.00                       # Average achieved write bandwidth in MiByte/s
system.mem_ctrls01.avgRdBWSys                    0.00                       # Average system read bandwidth in MiByte/s
system.mem_ctrls01.avgWrBWSys                    0.00                       # Average system write bandwidth in MiByte/s
system.mem_ctrls01.peakBW                    12800.00                       # Theoretical peak bandwidth in MiByte/s
system.mem_ctrls01.busUtil                       0.00                       # Data bus utilization in percentage
system.mem_ctrls01.busUtilRead                   0.00                       # Data bus utilization in percentage for reads
system.mem_ctrls01.busUtilWrite                  0.00                       # Data bus utilization in percentage for writes
system.mem_ctrls01.avgRdQLen                     0.00                       # Average read queue length when enqueuing
system.mem_ctrls01.avgWrQLen                     0.00                       # Average write queue length when enqueuing
system.mem_ctrls01.readRowHits                      0                       # Number of row buffer hits during reads
system.mem_ctrls01.writeRowHits                     0                       # Number of row buffer hits during writes
system.mem_ctrls01.readRowHitRate                 nan                       # Row buffer hit rate for reads
system.mem_ctrls01.writeRowHitRate                nan                       # Row buffer hit rate for writes
system.mem_ctrls01.avgGap                         nan                       # Average gap between requests
system.mem_ctrls01.pageHitRate                    nan                       # Row buffer hit rate, read and write combined
system.mem_ctrls01_0.actEnergy                      0                       # Energy for activate commands per rank (pJ)
system.mem_ctrls01_0.preEnergy                      0                       # Energy for precharge commands per rank (pJ)
system.mem_ctrls01_0.readEnergy                     0                       # Energy for read commands per rank (pJ)
system.mem_ctrls01_0.writeEnergy                    0                       # Energy for write commands per rank (pJ)
system.mem_ctrls01_0.refreshEnergy       614640.000000                       # Energy for refresh commands per rank (pJ)
system.mem_ctrls01_0.actBackEnergy             112176                       # Energy for active background per rank (pJ)
system.mem_ctrls01_0.preBackEnergy            2997504                       # Energy for precharge background per rank (pJ)
system.mem_ctrls01_0.actPowerDownEnergy             0                       # Energy for active power-down per rank (pJ)
system.mem_ctrls01_0.prePowerDownEnergy       2889984                       # Energy for precharge power-down per rank (pJ)
system.mem_ctrls01_0.selfRefreshEnergy        8813520                       # Energy for self refresh per rank (pJ)
system.mem_ctrls01_0.totalEnergy             15427824                       # Total energy per rank (pJ)
system.mem_ctrls01_0.averagePower          308.556480                       # Core power per rank (mW)
system.mem_ctrls01_0.totalIdleTime               7526                       # Total Idle time Per DRAM Rank
system.mem_ctrls01_0.memoryStateTime::IDLE         7792                       # Time in different power states
system.mem_ctrls01_0.memoryStateTime::REF          260                       # Time in different power states
system.mem_ctrls01_0.memoryStateTime::SREF        34422                       # Time in different power states
system.mem_ctrls01_0.memoryStateTime::PRE_PDN         7526                       # Time in different power states
system.mem_ctrls01_0.memoryStateTime::ACT            0                       # Time in different power states
system.mem_ctrls01_0.memoryStateTime::ACT_PDN            0                       # Time in different power states
system.mem_ctrls01_1.actEnergy                      0                       # Energy for activate commands per rank (pJ)
system.mem_ctrls01_1.preEnergy                      0                       # Energy for precharge commands per rank (pJ)
system.mem_ctrls01_1.readEnergy                     0                       # Energy for read commands per rank (pJ)
system.mem_ctrls01_1.writeEnergy                    0                       # Energy for write commands per rank (pJ)
system.mem_ctrls01_1.refreshEnergy       614640.000000                       # Energy for refresh commands per rank (pJ)
system.mem_ctrls01_1.actBackEnergy             112176                       # Energy for active background per rank (pJ)
system.mem_ctrls01_1.preBackEnergy            2997504                       # Energy for precharge background per rank (pJ)
system.mem_ctrls01_1.actPowerDownEnergy             0                       # Energy for active power-down per rank (pJ)
system.mem_ctrls01_1.prePowerDownEnergy       2889984                       # Energy for precharge power-down per rank (pJ)
system.mem_ctrls01_1.selfRefreshEnergy        8813520                       # Energy for self refresh per rank (pJ)
system.mem_ctrls01_1.totalEnergy             15427824                       # Total energy per rank (pJ)
system.mem_ctrls01_1.averagePower          308.556480                       # Core power per rank (mW)
system.mem_ctrls01_1.totalIdleTime               7526                       # Total Idle time Per DRAM Rank
system.mem_ctrls01_1.memoryStateTime::IDLE         7792                       # Time in different power states
system.mem_ctrls01_1.memoryStateTime::REF          260                       # Time in different power states
system.mem_ctrls01_1.memoryStateTime::SREF        34422                       # Time in different power states
system.mem_ctrls01_1.memoryStateTime::PRE_PDN         7526                       # Time in different power states
system.mem_ctrls01_1.memoryStateTime::ACT            0                       # Time in different power states
system.mem_ctrls01_1.memoryStateTime::ACT_PDN            0                       # Time in different power states
system.mem_ctrls02.pwrStateResidencyTicks::UNDEFINED        50000                       # Cumulative time (in ticks) in various power states
system.mem_ctrls02.priorityMinLatency    0.000000000000                       # per QoS priority minimum request to response latency (s)
system.mem_ctrls02.priorityMaxLatency    0.000000000000                       # per QoS priority maximum request to response latency (s)
system.mem_ctrls02.numReadWriteTurnArounds            0                       # Number of turnarounds from READ to WRITE
system.mem_ctrls02.numWriteReadTurnArounds            0                       # Number of turnarounds from WRITE to READ
system.mem_ctrls02.numStayReadState                 2                       # Number of times bus staying in READ state
system.mem_ctrls02.numStayWriteState                0                       # Number of times bus staying in WRITE state
system.mem_ctrls02.readReqs                         0                       # Number of read requests accepted
system.mem_ctrls02.writeReqs                        0                       # Number of write requests accepted
system.mem_ctrls02.readBursts                       0                       # Number of DRAM read bursts, including those serviced by the write queue
system.mem_ctrls02.writeBursts                      0                       # Number of DRAM write bursts, including those merged in the write queue
system.mem_ctrls02.bytesReadDRAM                    0                       # Total number of bytes read from DRAM
system.mem_ctrls02.bytesReadWrQ                     0                       # Total number of bytes read from write queue
system.mem_ctrls02.bytesWritten                     0                       # Total number of bytes written to DRAM
system.mem_ctrls02.bytesReadSys                     0                       # Total read bytes from the system interface side
system.mem_ctrls02.bytesWrittenSys                  0                       # Total written bytes from the system interface side
system.mem_ctrls02.servicedByWrQ                    0                       # Number of DRAM read bursts serviced by the write queue
system.mem_ctrls02.mergedWrBursts                   0                       # Number of DRAM write bursts merged with an existing one
system.mem_ctrls02.neitherReadNorWriteReqs            0                       # Number of requests that are neither read nor write
system.mem_ctrls02.perBankRdBursts::0               0                       # Per bank write bursts
system.mem_ctrls02.perBankRdBursts::1               0                       # Per bank write bursts
system.mem_ctrls02.perBankRdBursts::2               0                       # Per bank write bursts
system.mem_ctrls02.perBankRdBursts::3               0                       # Per bank write bursts
system.mem_ctrls02.perBankRdBursts::4               0                       # Per bank write bursts
system.mem_ctrls02.perBankRdBursts::5               0                       # Per bank write bursts
system.mem_ctrls02.perBankRdBursts::6               0                       # Per bank write bursts
system.mem_ctrls02.perBankRdBursts::7               0                       # Per bank write bursts
system.mem_ctrls02.perBankRdBursts::8               0                       # Per bank write bursts
system.mem_ctrls02.perBankRdBursts::9               0                       # Per bank write bursts
system.mem_ctrls02.perBankRdBursts::10              0                       # Per bank write bursts
system.mem_ctrls02.perBankRdBursts::11              0                       # Per bank write bursts
system.mem_ctrls02.perBankRdBursts::12              0                       # Per bank write bursts
system.mem_ctrls02.perBankRdBursts::13              0                       # Per bank write bursts
system.mem_ctrls02.perBankRdBursts::14              0                       # Per bank write bursts
system.mem_ctrls02.perBankRdBursts::15              0                       # Per bank write bursts
system.mem_ctrls02.perBankWrBursts::0               0                       # Per bank write bursts
system.mem_ctrls02.perBankWrBursts::1               0                       # Per bank write bursts
system.mem_ctrls02.perBankWrBursts::2               0                       # Per bank write bursts
system.mem_ctrls02.perBankWrBursts::3               0                       # Per bank write bursts
system.mem_ctrls02.perBankWrBursts::4               0                       # Per bank write bursts
system.mem_ctrls02.perBankWrBursts::5               0                       # Per bank write bursts
system.mem_ctrls02.perBankWrBursts::6               0                       # Per bank write bursts
system.mem_ctrls02.perBankWrBursts::7               0                       # Per bank write bursts
system.mem_ctrls02.perBankWrBursts::8               0                       # Per bank write bursts
system.mem_ctrls02.perBankWrBursts::9               0                       # Per bank write bursts
system.mem_ctrls02.perBankWrBursts::10              0                       # Per bank write bursts
system.mem_ctrls02.perBankWrBursts::11              0                       # Per bank write bursts
system.mem_ctrls02.perBankWrBursts::12              0                       # Per bank write bursts
system.mem_ctrls02.perBankWrBursts::13              0                       # Per bank write bursts
system.mem_ctrls02.perBankWrBursts::14              0                       # Per bank write bursts
system.mem_ctrls02.perBankWrBursts::15              0                       # Per bank write bursts
system.mem_ctrls02.numRdRetry                       0                       # Number of times read queue was full causing retry
system.mem_ctrls02.numWrRetry                       0                       # Number of times write queue was full causing retry
system.mem_ctrls02.totGap                           0                       # Total gap between requests
system.mem_ctrls02.readPktSize::0                   0                       # Read request sizes (log2)
system.mem_ctrls02.readPktSize::1                   0                       # Read request sizes (log2)
system.mem_ctrls02.readPktSize::2                   0                       # Read request sizes (log2)
system.mem_ctrls02.readPktSize::3                   0                       # Read request sizes (log2)
system.mem_ctrls02.readPktSize::4                   0                       # Read request sizes (log2)
system.mem_ctrls02.readPktSize::5                   0                       # Read request sizes (log2)
system.mem_ctrls02.readPktSize::6                   0                       # Read request sizes (log2)
system.mem_ctrls02.writePktSize::0                  0                       # Write request sizes (log2)
system.mem_ctrls02.writePktSize::1                  0                       # Write request sizes (log2)
system.mem_ctrls02.writePktSize::2                  0                       # Write request sizes (log2)
system.mem_ctrls02.writePktSize::3                  0                       # Write request sizes (log2)
system.mem_ctrls02.writePktSize::4                  0                       # Write request sizes (log2)
system.mem_ctrls02.writePktSize::5                  0                       # Write request sizes (log2)
system.mem_ctrls02.writePktSize::6                  0                       # Write request sizes (log2)
system.mem_ctrls02.rdQLenPdf::0                     0                       # What read queue length does an incoming req see
system.mem_ctrls02.rdQLenPdf::1                     0                       # What read queue length does an incoming req see
system.mem_ctrls02.rdQLenPdf::2                     0                       # What read queue length does an incoming req see
system.mem_ctrls02.rdQLenPdf::3                     0                       # What read queue length does an incoming req see
system.mem_ctrls02.rdQLenPdf::4                     0                       # What read queue length does an incoming req see
system.mem_ctrls02.rdQLenPdf::5                     0                       # What read queue length does an incoming req see
system.mem_ctrls02.rdQLenPdf::6                     0                       # What read queue length does an incoming req see
system.mem_ctrls02.rdQLenPdf::7                     0                       # What read queue length does an incoming req see
system.mem_ctrls02.rdQLenPdf::8                     0                       # What read queue length does an incoming req see
system.mem_ctrls02.rdQLenPdf::9                     0                       # What read queue length does an incoming req see
system.mem_ctrls02.rdQLenPdf::10                    0                       # What read queue length does an incoming req see
system.mem_ctrls02.rdQLenPdf::11                    0                       # What read queue length does an incoming req see
system.mem_ctrls02.rdQLenPdf::12                    0                       # What read queue length does an incoming req see
system.mem_ctrls02.rdQLenPdf::13                    0                       # What read queue length does an incoming req see
system.mem_ctrls02.rdQLenPdf::14                    0                       # What read queue length does an incoming req see
system.mem_ctrls02.rdQLenPdf::15                    0                       # What read queue length does an incoming req see
system.mem_ctrls02.rdQLenPdf::16                    0                       # What read queue length does an incoming req see
system.mem_ctrls02.rdQLenPdf::17                    0                       # What read queue length does an incoming req see
system.mem_ctrls02.rdQLenPdf::18                    0                       # What read queue length does an incoming req see
system.mem_ctrls02.rdQLenPdf::19                    0                       # What read queue length does an incoming req see
system.mem_ctrls02.rdQLenPdf::20                    0                       # What read queue length does an incoming req see
system.mem_ctrls02.rdQLenPdf::21                    0                       # What read queue length does an incoming req see
system.mem_ctrls02.rdQLenPdf::22                    0                       # What read queue length does an incoming req see
system.mem_ctrls02.rdQLenPdf::23                    0                       # What read queue length does an incoming req see
system.mem_ctrls02.rdQLenPdf::24                    0                       # What read queue length does an incoming req see
system.mem_ctrls02.rdQLenPdf::25                    0                       # What read queue length does an incoming req see
system.mem_ctrls02.rdQLenPdf::26                    0                       # What read queue length does an incoming req see
system.mem_ctrls02.rdQLenPdf::27                    0                       # What read queue length does an incoming req see
system.mem_ctrls02.rdQLenPdf::28                    0                       # What read queue length does an incoming req see
system.mem_ctrls02.rdQLenPdf::29                    0                       # What read queue length does an incoming req see
system.mem_ctrls02.rdQLenPdf::30                    0                       # What read queue length does an incoming req see
system.mem_ctrls02.rdQLenPdf::31                    0                       # What read queue length does an incoming req see
system.mem_ctrls02.wrQLenPdf::0                     0                       # What write queue length does an incoming req see
system.mem_ctrls02.wrQLenPdf::1                     0                       # What write queue length does an incoming req see
system.mem_ctrls02.wrQLenPdf::2                     0                       # What write queue length does an incoming req see
system.mem_ctrls02.wrQLenPdf::3                     0                       # What write queue length does an incoming req see
system.mem_ctrls02.wrQLenPdf::4                     0                       # What write queue length does an incoming req see
system.mem_ctrls02.wrQLenPdf::5                     0                       # What write queue length does an incoming req see
system.mem_ctrls02.wrQLenPdf::6                     0                       # What write queue length does an incoming req see
system.mem_ctrls02.wrQLenPdf::7                     0                       # What write queue length does an incoming req see
system.mem_ctrls02.wrQLenPdf::8                     0                       # What write queue length does an incoming req see
system.mem_ctrls02.wrQLenPdf::9                     0                       # What write queue length does an incoming req see
system.mem_ctrls02.wrQLenPdf::10                    0                       # What write queue length does an incoming req see
system.mem_ctrls02.wrQLenPdf::11                    0                       # What write queue length does an incoming req see
system.mem_ctrls02.wrQLenPdf::12                    0                       # What write queue length does an incoming req see
system.mem_ctrls02.wrQLenPdf::13                    0                       # What write queue length does an incoming req see
system.mem_ctrls02.wrQLenPdf::14                    0                       # What write queue length does an incoming req see
system.mem_ctrls02.wrQLenPdf::15                    0                       # What write queue length does an incoming req see
system.mem_ctrls02.wrQLenPdf::16                    0                       # What write queue length does an incoming req see
system.mem_ctrls02.wrQLenPdf::17                    0                       # What write queue length does an incoming req see
system.mem_ctrls02.wrQLenPdf::18                    0                       # What write queue length does an incoming req see
system.mem_ctrls02.wrQLenPdf::19                    0                       # What write queue length does an incoming req see
system.mem_ctrls02.wrQLenPdf::20                    0                       # What write queue length does an incoming req see
system.mem_ctrls02.wrQLenPdf::21                    0                       # What write queue length does an incoming req see
system.mem_ctrls02.wrQLenPdf::22                    0                       # What write queue length does an incoming req see
system.mem_ctrls02.wrQLenPdf::23                    0                       # What write queue length does an incoming req see
system.mem_ctrls02.wrQLenPdf::24                    0                       # What write queue length does an incoming req see
system.mem_ctrls02.wrQLenPdf::25                    0                       # What write queue length does an incoming req see
system.mem_ctrls02.wrQLenPdf::26                    0                       # What write queue length does an incoming req see
system.mem_ctrls02.wrQLenPdf::27                    0                       # What write queue length does an incoming req see
system.mem_ctrls02.wrQLenPdf::28                    0                       # What write queue length does an incoming req see
system.mem_ctrls02.wrQLenPdf::29                    0                       # What write queue length does an incoming req see
system.mem_ctrls02.wrQLenPdf::30                    0                       # What write queue length does an incoming req see
system.mem_ctrls02.wrQLenPdf::31                    0                       # What write queue length does an incoming req see
system.mem_ctrls02.wrQLenPdf::32                    0                       # What write queue length does an incoming req see
system.mem_ctrls02.wrQLenPdf::33                    0                       # What write queue length does an incoming req see
system.mem_ctrls02.wrQLenPdf::34                    0                       # What write queue length does an incoming req see
system.mem_ctrls02.wrQLenPdf::35                    0                       # What write queue length does an incoming req see
system.mem_ctrls02.wrQLenPdf::36                    0                       # What write queue length does an incoming req see
system.mem_ctrls02.wrQLenPdf::37                    0                       # What write queue length does an incoming req see
system.mem_ctrls02.wrQLenPdf::38                    0                       # What write queue length does an incoming req see
system.mem_ctrls02.wrQLenPdf::39                    0                       # What write queue length does an incoming req see
system.mem_ctrls02.wrQLenPdf::40                    0                       # What write queue length does an incoming req see
system.mem_ctrls02.wrQLenPdf::41                    0                       # What write queue length does an incoming req see
system.mem_ctrls02.wrQLenPdf::42                    0                       # What write queue length does an incoming req see
system.mem_ctrls02.wrQLenPdf::43                    0                       # What write queue length does an incoming req see
system.mem_ctrls02.wrQLenPdf::44                    0                       # What write queue length does an incoming req see
system.mem_ctrls02.wrQLenPdf::45                    0                       # What write queue length does an incoming req see
system.mem_ctrls02.wrQLenPdf::46                    0                       # What write queue length does an incoming req see
system.mem_ctrls02.wrQLenPdf::47                    0                       # What write queue length does an incoming req see
system.mem_ctrls02.wrQLenPdf::48                    0                       # What write queue length does an incoming req see
system.mem_ctrls02.wrQLenPdf::49                    0                       # What write queue length does an incoming req see
system.mem_ctrls02.wrQLenPdf::50                    0                       # What write queue length does an incoming req see
system.mem_ctrls02.wrQLenPdf::51                    0                       # What write queue length does an incoming req see
system.mem_ctrls02.wrQLenPdf::52                    0                       # What write queue length does an incoming req see
system.mem_ctrls02.wrQLenPdf::53                    0                       # What write queue length does an incoming req see
system.mem_ctrls02.wrQLenPdf::54                    0                       # What write queue length does an incoming req see
system.mem_ctrls02.wrQLenPdf::55                    0                       # What write queue length does an incoming req see
system.mem_ctrls02.wrQLenPdf::56                    0                       # What write queue length does an incoming req see
system.mem_ctrls02.wrQLenPdf::57                    0                       # What write queue length does an incoming req see
system.mem_ctrls02.wrQLenPdf::58                    0                       # What write queue length does an incoming req see
system.mem_ctrls02.wrQLenPdf::59                    0                       # What write queue length does an incoming req see
system.mem_ctrls02.wrQLenPdf::60                    0                       # What write queue length does an incoming req see
system.mem_ctrls02.wrQLenPdf::61                    0                       # What write queue length does an incoming req see
system.mem_ctrls02.wrQLenPdf::62                    0                       # What write queue length does an incoming req see
system.mem_ctrls02.wrQLenPdf::63                    0                       # What write queue length does an incoming req see
system.mem_ctrls02.totQLat                          0                       # Total ticks spent queuing
system.mem_ctrls02.totMemAccLat                     0                       # Total ticks spent from burst creation until serviced by the DRAM
system.mem_ctrls02.totBusLat                        0                       # Total ticks spent in databus transfers
system.mem_ctrls02.avgQLat                        nan                       # Average queueing delay per DRAM burst
system.mem_ctrls02.avgBusLat                      nan                       # Average bus latency per DRAM burst
system.mem_ctrls02.avgMemAccLat                   nan                       # Average memory access latency per DRAM burst
system.mem_ctrls02.avgRdBW                       0.00                       # Average DRAM read bandwidth in MiByte/s
system.mem_ctrls02.avgWrBW                       0.00                       # Average achieved write bandwidth in MiByte/s
system.mem_ctrls02.avgRdBWSys                    0.00                       # Average system read bandwidth in MiByte/s
system.mem_ctrls02.avgWrBWSys                    0.00                       # Average system write bandwidth in MiByte/s
system.mem_ctrls02.peakBW                    12800.00                       # Theoretical peak bandwidth in MiByte/s
system.mem_ctrls02.busUtil                       0.00                       # Data bus utilization in percentage
system.mem_ctrls02.busUtilRead                   0.00                       # Data bus utilization in percentage for reads
system.mem_ctrls02.busUtilWrite                  0.00                       # Data bus utilization in percentage for writes
system.mem_ctrls02.avgRdQLen                     0.00                       # Average read queue length when enqueuing
system.mem_ctrls02.avgWrQLen                     0.00                       # Average write queue length when enqueuing
system.mem_ctrls02.readRowHits                      0                       # Number of row buffer hits during reads
system.mem_ctrls02.writeRowHits                     0                       # Number of row buffer hits during writes
system.mem_ctrls02.readRowHitRate                 nan                       # Row buffer hit rate for reads
system.mem_ctrls02.writeRowHitRate                nan                       # Row buffer hit rate for writes
system.mem_ctrls02.avgGap                         nan                       # Average gap between requests
system.mem_ctrls02.pageHitRate                    nan                       # Row buffer hit rate, read and write combined
system.mem_ctrls02_0.actEnergy                      0                       # Energy for activate commands per rank (pJ)
system.mem_ctrls02_0.preEnergy                      0                       # Energy for precharge commands per rank (pJ)
system.mem_ctrls02_0.readEnergy                     0                       # Energy for read commands per rank (pJ)
system.mem_ctrls02_0.writeEnergy                    0                       # Energy for write commands per rank (pJ)
system.mem_ctrls02_0.refreshEnergy       614640.000000                       # Energy for refresh commands per rank (pJ)
system.mem_ctrls02_0.actBackEnergy             112176                       # Energy for active background per rank (pJ)
system.mem_ctrls02_0.preBackEnergy            2997504                       # Energy for precharge background per rank (pJ)
system.mem_ctrls02_0.actPowerDownEnergy             0                       # Energy for active power-down per rank (pJ)
system.mem_ctrls02_0.prePowerDownEnergy       2889984                       # Energy for precharge power-down per rank (pJ)
system.mem_ctrls02_0.selfRefreshEnergy        8813520                       # Energy for self refresh per rank (pJ)
system.mem_ctrls02_0.totalEnergy             15427824                       # Total energy per rank (pJ)
system.mem_ctrls02_0.averagePower          308.556480                       # Core power per rank (mW)
system.mem_ctrls02_0.totalIdleTime               7526                       # Total Idle time Per DRAM Rank
system.mem_ctrls02_0.memoryStateTime::IDLE         7792                       # Time in different power states
system.mem_ctrls02_0.memoryStateTime::REF          260                       # Time in different power states
system.mem_ctrls02_0.memoryStateTime::SREF        34422                       # Time in different power states
system.mem_ctrls02_0.memoryStateTime::PRE_PDN         7526                       # Time in different power states
system.mem_ctrls02_0.memoryStateTime::ACT            0                       # Time in different power states
system.mem_ctrls02_0.memoryStateTime::ACT_PDN            0                       # Time in different power states
system.mem_ctrls02_1.actEnergy                      0                       # Energy for activate commands per rank (pJ)
system.mem_ctrls02_1.preEnergy                      0                       # Energy for precharge commands per rank (pJ)
system.mem_ctrls02_1.readEnergy                     0                       # Energy for read commands per rank (pJ)
system.mem_ctrls02_1.writeEnergy                    0                       # Energy for write commands per rank (pJ)
system.mem_ctrls02_1.refreshEnergy       614640.000000                       # Energy for refresh commands per rank (pJ)
system.mem_ctrls02_1.actBackEnergy             112176                       # Energy for active background per rank (pJ)
system.mem_ctrls02_1.preBackEnergy            2997504                       # Energy for precharge background per rank (pJ)
system.mem_ctrls02_1.actPowerDownEnergy             0                       # Energy for active power-down per rank (pJ)
system.mem_ctrls02_1.prePowerDownEnergy       2889984                       # Energy for precharge power-down per rank (pJ)
system.mem_ctrls02_1.selfRefreshEnergy        8813520                       # Energy for self refresh per rank (pJ)
system.mem_ctrls02_1.totalEnergy             15427824                       # Total energy per rank (pJ)
[...]
system.ruby.Directory_Controller.I.Receive_Request::total       455744                      
system.ruby.Directory_Controller.I.Receive_Forward |        4423      1.54%      1.54% |        4532      1.57%      3.11% |        4497      1.56%      4.67% |        4437      1.54%      6.21% |        4581      1.59%      7.80% |        4506      1.57%      9.37% |        4517      1.57%     10.94% |        4513      1.57%     12.51% |        4426      1.54%     14.04% |        4565      1.59%     15.63% |        4504      1.56%     17.19% |        4542      1.58%     18.77% |        4566      1.59%     20.36% |        4483      1.56%     21.91% |        4488      1.56%     23.47% |        4470      1.55%     25.03% |        4504      1.56%     26.59% |        4562      1.58%     28.17% |        4562      1.58%     29.76% |        4460      1.55%     31.31% |        4515      1.57%     32.88% |        4471      1.55%     34.43% |        4397      1.53%     35.96% |        4455      1.55%     37.50% |        4431      1.54%     39.04% |        4548      1.58%     40.62% |        4479      1.56%     42.18% |        4670      1.62%     43.80% |        4490      1.56%     45.36% |        4625      1.61%     46.97% |        4525      1.57%     48.54% |        4533      1.57%     50.11% |        4509      1.57%     51.68% |        4498      1.56%     53.24% |        4583      1.59%     54.83% |        4610      1.60%     56.43% |        4405      1.53%     57.96% |        4371      1.52%     59.48% |        4504      1.56%     61.05% |        4386      1.52%     62.57% |        4519      1.57%     64.14% |        4541      1.58%     65.72% |        4561      1.58%     67.30% |        4506      1.57%     68.87% |        4525      1.57%     70.44% |        4459      1.55%     71.99% |        4425      1.54%     73.52% |        4558      1.58%     75.11% |        4411      1.53%     76.64% |        4386      1.52%     78.16% |        4534      1.57%     79.74% |        4543      1.58%     81.32% |        4474      1.55%     82.87% |        4529      1.57%     84.44% |        4536      1.58%     86.02% |        4368      1.52%     87.54% |        4485      1.56%     89.09% |        4453      1.55%     90.64% |        4380      1.52%     92.16% |        4597      1.60%     93.76% |        4484      1.56%     95.32% |        4476      1.55%     96.87% |        4537      1.58%     98.45% |        4472      1.55%    100.00%
system.ruby.Directory_Controller.I.Receive_Forward::total       287902                      
system.ruby.Directory_Controller.I.Receive_Response |         881      1.58%      1.58% |         904      1.62%      3.20% |         910      1.63%      4.83% |         920      1.65%      6.48% |         865      1.55%      8.03% |         831      1.49%      9.52% |         880      1.58%     11.09% |         899      1.61%     12.70% |         819      1.47%     14.17% |         854      1.53%     15.70% |         873      1.56%     17.27% |         950      1.70%     18.97% |         820      1.47%     20.44% |         829      1.49%     21.92% |         881      1.58%     23.50% |         869      1.56%     25.06% |         821      1.47%     26.53% |         856      1.53%     28.07% |         833      1.49%     29.56% |         912      1.63%     31.19% |         846      1.52%     32.71% |         880      1.58%     34.29% |         910      1.63%     35.92% |         851      1.52%     37.44% |         875      1.57%     39.01% |         884      1.58%     40.59% |         906      1.62%     42.22% |         892      1.60%     43.82% |         858      1.54%     45.35% |         857      1.54%     46.89% |         795      1.42%     48.31% |         855      1.53%     49.84% |         926      1.66%     51.50% |         872      1.56%     53.07% |         847      1.52%     54.58% |         894      1.60%     56.19% |         981      1.76%     57.94% |         832      1.49%     59.44% |         856      1.53%     60.97% |         914      1.64%     62.61% |         848      1.52%     64.13% |         900      1.61%     65.74% |         853      1.53%     67.27% |         840      1.51%     68.77% |         873      1.56%     70.34% |         900      1.61%     71.95% |         837      1.50%     73.45% |         896      1.61%     75.06% |         859      1.54%     76.60% |         905      1.62%     78.22% |         837      1.50%     79.72% |         913      1.64%     81.35% |         858      1.54%     82.89% |         863      1.55%     84.44% |         820      1.47%     85.91% |         902      1.62%     87.52% |         908      1.63%     89.15% |         837      1.50%     90.65% |         885      1.59%     92.24% |         917      1.64%     93.88% |         899      1.61%     95.49% |         852      1.53%     97.02% |         838      1.50%     98.52% |         827      1.48%    100.00%
system.ruby.Directory_Controller.I.Receive_Response::total        55805                      
system.ruby.L1Cache_Controller.Request   |       15647      1.54%      1.54% |       16046      1.58%      3.13% |       15821      1.56%      4.69% |       15788      1.56%      6.24% |       15571      1.54%      7.78% |       15913      1.57%      9.35% |       15774      1.56%     10.90% |       15954      1.57%     12.48% |       15863      1.56%     14.04% |       15794      1.56%     15.60% |       15969      1.57%     17.17% |       15900      1.57%     18.74% |       15772      1.56%     20.30% |       15712      1.55%     21.85% |       15744      1.55%     23.40% |       15894      1.57%     24.97% |       15797      1.56%     26.52% |       15937      1.57%     28.10% |       15777      1.56%     29.65% |       15873      1.57%     31.22% |       15752      1.55%     32.77% |       15560      1.53%     34.30% |       15976      1.58%     35.88% |       15824      1.56%     37.44% |       15819      1.56%     39.00% |       15863      1.56%     40.56% |       15820      1.56%     42.12% |       15719      1.55%     43.67% |       15741      1.55%     45.23% |       15810      1.56%     46.79% |       16102      1.59%     48.37% |       15821      1.56%     49.93% |       15929      1.57%     51.51% |       15937      1.57%     53.08% |       15915      1.57%     54.65% |       15847      1.56%     56.21% |       15933      1.57%     57.78% |       15848      1.56%     59.34% |       15991      1.58%     60.92% |       15972      1.58%     62.50% |       15925      1.57%     64.07% |       15885      1.57%     65.63% |       15694      1.55%     67.18% |       15747      1.55%     68.73% |       15742      1.55%     70.29% |       15955      1.57%     71.86% |       16077      1.59%     73.44% |       15825      1.56%     75.00% |       15751      1.55%     76.56% |       15825      1.56%     78.12% |       15762      1.55%     79.67% |       15843      1.56%     81.24% |       15895      1.57%     82.80% |       15875      1.57%     84.37% |       15784      1.56%     85.93% |       16028      1.58%     87.51% |       15716      1.55%     89.06% |       15778      1.56%     90.61% |       15902      1.57%     92.18% |       15954      1.57%     93.75% |       15725      1.55%     95.30% |       15935      1.57%     96.88% |       15832      1.56%     98.44% |       15855      1.56%    100.00%
system.ruby.L1Cache_Controller.Request::total      1014035                      
system.ruby.L1Cache_Controller.Forward   |       15857      1.57%      1.57% |       15592      1.54%      3.11% |       15725      1.56%      4.67% |       15852      1.57%      6.24% |       15902      1.57%      7.81% |       15587      1.54%      9.35% |       15767      1.56%     10.91% |       15834      1.57%     12.48% |       15738      1.56%     14.04% |       15836      1.57%     15.60% |       15797      1.56%     17.17% |       15675      1.55%     18.72% |       15916      1.57%     20.29% |       15698      1.55%     21.85% |       15954      1.58%     23.42% |       15905      1.57%     25.00% |       15909      1.57%     26.57% |       15804      1.56%     28.14% |       15901      1.57%     29.71% |       15665      1.55%     31.26% |       15911      1.57%     32.83% |       15940      1.58%     34.41% |       15775      1.56%     35.97% |       15818      1.57%     37.54% |       15854      1.57%     39.11% |       15780      1.56%     40.67% |       15709      1.55%     42.22% |       15706      1.55%     43.78% |       15796      1.56%     45.34% |       15924      1.58%     46.92% |       15720      1.56%     48.47% |       15787      1.56%     50.03% |       15711      1.55%     51.59% |       15781      1.56%     53.15% |       15999      1.58%     54.73% |       15693      1.55%     56.28% |       15757      1.56%     57.84% |       15845      1.57%     59.41% |       15612      1.54%     60.96% |       15813      1.56%     62.52% |       15634      1.55%     64.07% |       15755      1.56%     65.63% |       15774      1.56%     67.19% |       15905      1.57%     68.76% |       15885      1.57%     70.33% |       15633      1.55%     71.88% |       15831      1.57%     73.45% |       15644      1.55%     75.00% |       15693      1.55%     76.55% |       16001      1.58%     78.13% |       15879      1.57%     79.70% |       15807      1.56%     81.27% |       15818      1.57%     82.83% |       15759      1.56%     84.39% |       15782      1.56%     85.95% |       15731      1.56%     87.51% |       15665      1.55%     89.06% |       15819      1.57%     90.62% |       15802      1.56%     92.19% |       15780      1.56%     93.75% |       15757      1.56%     95.31% |       15794      1.56%     96.87% |       15912      1.57%     98.45% |       15702      1.55%    100.00%
system.ruby.L1Cache_Controller.Forward::total      1010607                      
system.ruby.L1Cache_Controller.Response  |       15930      1.57%      1.57% |       15836      1.56%      3.14% |       15891      1.57%      4.71% |       15805      1.56%      6.27% |       16060      1.59%      7.86% |       15992      1.58%      9.43% |       15790      1.56%     10.99% |       15637      1.54%     12.54% |       15880      1.57%     14.11% |       15749      1.56%     15.66% |       15654      1.55%     17.21% |       15913      1.57%     18.78% |       15756      1.56%     20.34% |       16093      1.59%     21.93% |       15775      1.56%     23.49% |       15746      1.56%     25.04% |       15746      1.56%     26.60% |       15748      1.56%     28.15% |       15750      1.56%     29.71% |       15813      1.56%     31.27% |       15840      1.56%     32.84% |       15946      1.58%     34.41% |       15769      1.56%     35.97% |       15771      1.56%     37.53% |       15784      1.56%     39.08% |       15740      1.55%     40.64% |       15805      1.56%     42.20% |       15897      1.57%     43.77% |       15900      1.57%     45.34% |       15777      1.56%     46.90% |       15625      1.54%     48.44% |       15881      1.57%     50.01% |       15820      1.56%     51.58% |       15724      1.55%     53.13% |       15575      1.54%     54.67% |       15865      1.57%     56.23% |       15763      1.56%     57.79% |       15788      1.56%     59.35% |       15851      1.57%     60.92% |       15648      1.55%     62.46% |       15883      1.57%     64.03% |       15821      1.56%     65.59% |       15908      1.57%     67.17% |       15831      1.56%     68.73% |       15934      1.57%     70.30% |       15942      1.57%     71.88% |       15632      1.54%     73.42% |       15980      1.58%     75.00% |       16049      1.59%     76.59% |       15618      1.54%     78.13% |       15824      1.56%     79.69% |       15790      1.56%     81.25% |       15733      1.55%     82.81% |       15867      1.57%     84.37% |       15860      1.57%     85.94% |       15596      1.54%     87.48% |       16028      1.58%     89.06% |       15869      1.57%     90.63% |       15773      1.56%     92.19% |       15757      1.56%     93.75% |       15979      1.58%     95.32% |       15715      1.55%     96.88% |       15757      1.56%     98.43% |       15867      1.57%    100.00%
system.ruby.L1Cache_Controller.Response::total      1012346                      
system.ruby.L1Cache_Controller.I.Request |       15647      1.54%      1.54% |       16046      1.58%      3.13% |       15821      1.56%      4.69% |       15788      1.56%      6.24% |       15571      1.54%      7.78% |       15913      1.57%      9.35% |       15774      1.56%     10.90% |       15954      1.57%     12.48% |       15863      1.56%     14.04% |       15794      1.56%     15.60% |       15969      1.57%     17.17% |       15900      1.57%     18.74% |       15772      1.56%     20.30% |       15712      1.55%     21.85% |       15744      1.55%     23.40% |       15894      1.57%     24.97% |       15797      1.56%     26.52% |       15937      1.57%     28.10% |       15777      1.56%     29.65% |       15873      1.57%     31.22% |       15752      1.55%     32.77% |       15560      1.53%     34.30% |       15976      1.58%     35.88% |       15824      1.56%     37.44% |       15819      1.56%     39.00% |       15863      1.56%     40.56% |       15820      1.56%     42.12% |       15719      1.55%     43.67% |       15741      1.55%     45.23% |       15810      1.56%     46.79% |       16102      1.59%     48.37% |       15821      1.56%     49.93% |       15929      1.57%     51.51% |       15937      1.57%     53.08% |       15915      1.57%     54.65% |       15847      1.56%     56.21% |       15933      1.57%     57.78% |       15848      1.56%     59.34% |       15991      1.58%     60.92% |       15972      1.58%     62.50% |       15925      1.57%     64.07% |       15885      1.57%     65.63% |       15694      1.55%     67.18% |       15747      1.55%     68.73% |       15742      1.55%     70.29% |       15955      1.57%     71.86% |       16077      1.59%     73.44% |       15825      1.56%     75.00% |       15751      1.55%     76.56% |       15825      1.56%     78.12% |       15762      1.55%     79.67% |       15843      1.56%     81.24% |       15895      1.57%     82.80% |       15875      1.57%     84.37% |       15784      1.56%     85.93% |       16028      1.58%     87.51% |       15716      1.55%     89.06% |       15778      1.56%     90.61% |       15902      1.57%     92.18% |       15954      1.57%     93.75% |       15725      1.55%     95.30% |       15935      1.57%     96.88% |       15832      1.56%     98.44% |       15855      1.56%    100.00%
system.ruby.L1Cache_Controller.I.Request::total      1014035                      
system.ruby.L1Cache_Controller.I.Forward |       15857      1.57%      1.57% |       15592      1.54%      3.11% |       15725      1.56%      4.67% |       15852      1.57%      6.24% |       15902      1.57%      7.81% |       15587      1.54%      9.35% |       15767      1.56%     10.91% |       15834      1.57%     12.48% |       15738      1.56%     14.04% |       15836      1.57%     15.60% |       15797      1.56%     17.17% |       15675      1.55%     18.72% |       15916      1.57%     20.29% |       15698      1.55%     21.85% |       15954      1.58%     23.42% |       15905      1.57%     25.00% |       15909      1.57%     26.57% |       15804      1.56%     28.14% |       15901      1.57%     29.71% |       15665      1.55%     31.26% |       15911      1.57%     32.83% |       15940      1.58%     34.41% |       15775      1.56%     35.97% |       15818      1.57%     37.54% |       15854      1.57%     39.11% |       15780      1.56%     40.67% |       15709      1.55%     42.22% |       15706      1.55%     43.78% |       15796      1.56%     45.34% |       15924      1.58%     46.92% |       15720      1.56%     48.47% |       15787      1.56%     50.03% |       15711      1.55%     51.59% |       15781      1.56%     53.15% |       15999      1.58%     54.73% |       15693      1.55%     56.28% |       15757      1.56%     57.84% |       15845      1.57%     59.41% |       15612      1.54%     60.96% |       15813      1.56%     62.52% |       15634      1.55%     64.07% |       15755      1.56%     65.63% |       15774      1.56%     67.19% |       15905      1.57%     68.76% |       15885      1.57%     70.33% |       15633      1.55%     71.88% |       15831      1.57%     73.45% |       15644      1.55%     75.00% |       15693      1.55%     76.55% |       16001      1.58%     78.13% |       15879      1.57%     79.70% |       15807      1.56%     81.27% |       15818      1.57%     82.83% |       15759      1.56%     84.39% |       15782      1.56%     85.95% |       15731      1.56%     87.51% |       15665      1.55%     89.06% |       15819      1.57%     90.62% |       15802      1.56%     92.19% |       15780      1.56%     93.75% |       15757      1.56%     95.31% |       15794      1.56%     96.87% |       15912      1.57%     98.45% |       15702      1.55%    100.00%
system.ruby.L1Cache_Controller.I.Forward::total      1010607                      
system.ruby.L1Cache_Controller.I.Response |       15930      1.57%      1.57% |       15836      1.56%      3.14% |       15891      1.57%      4.71% |       15805      1.56%      6.27% |       16060      1.59%      7.86% |       15992      1.58%      9.43% |       15790      1.56%     10.99% |       15637      1.54%     12.54% |       15880      1.57%     14.11% |       15749      1.56%     15.66% |       15654      1.55%     17.21% |       15913      1.57%     18.78% |       15756      1.56%     20.34% |       16093      1.59%     21.93% |       15775      1.56%     23.49% |       15746      1.56%     25.04% |       15746      1.56%     26.60% |       15748      1.56%     28.15% |       15750      1.56%     29.71% |       15813      1.56%     31.27% |       15840      1.56%     32.84% |       15946      1.58%     34.41% |       15769      1.56%     35.97% |       15771      1.56%     37.53% |       15784      1.56%     39.08% |       15740      1.55%     40.64% |       15805      1.56%     42.20% |       15897      1.57%     43.77% |       15900      1.57%     45.34% |       15777      1.56%     46.90% |       15625      1.54%     48.44% |       15881      1.57%     50.01% |       15820      1.56%     51.58% |       15724      1.55%     53.13% |       15575      1.54%     54.67% |       15865      1.57%     56.23% |       15763      1.56%     57.79% |       15788      1.56%     59.35% |       15851      1.57%     60.92% |       15648      1.55%     62.46% |       15883      1.57%     64.03% |       15821      1.56%     65.59% |       15908      1.57%     67.17% |       15831      1.56%     68.73% |       15934      1.57%     70.30% |       15942      1.57%     71.88% |       15632      1.54%     73.42% |       15980      1.58%     75.00% |       16049      1.59%     76.59% |       15618      1.54%     78.13% |       15824      1.56%     79.69% |       15790      1.56%     81.25% |       15733      1.55%     82.81% |       15867      1.57%     84.37% |       15860      1.57%     85.94% |       15596      1.54%     87.48% |       16028      1.58%     89.06% |       15869      1.57%     90.63% |       15773      1.56%     92.19% |       15757      1.56%     93.75% |       15979      1.58%     95.32% |       15715      1.55%     96.88% |       15757      1.56%     98.43% |       15867      1.57%    100.00%
system.ruby.L1Cache_Controller.I.Response::total      1012346                      

---------- End Simulation Statistics   ----------
