
---------- Begin Simulation Statistics ----------
sim_seconds                                  0.000050                       # Number of seconds simulated
sim_ticks                                       50000                       # Number of ticks simulated
final_tick                                      50000                       # Number of ticks from beginning of simulation (restored from checkpoints and never reset)
sim_freq                                   1000000000                       # Frequency of simulated ticks
host_tick_rate                                   1530                       # Simulator tick rate (ticks/s)
host_mem_usage                                1073484                       # Number of bytes of host memory used
host_seconds                                    32.68                       # Real time elapsed on the host
system.voltage_domain.voltage                       1                       # Voltage in Volts
system.clk_domain.clock                             1                       # Clock period in ticks
system.mem_ctrls00.pwrStateResidencyTicks::UNDEFINED        50000                       # Cumulative time (in ticks) in various power states
system.mem_ctrls00.priorityMinLatency    0.000000000000                       # per QoS priority minimum request to response latency (s)
system.mem_ctrls00.priorityMaxLatency    0.000000000000                       # per QoS priority maximum request to response latency (s)
system.mem_ctrls00.numReadWriteTurnArounds            0                       # Number of turnarounds from READ to WRITE
system.mem_ctrls00.numWriteReadTurnArounds            0                       # Number of turnarounds from WRITE to READ
system.mem_ctrls00.numStayReadState                 2                       # Number of times bus staying in READ state
system.mem_ctrls00.numStayWriteState                0                       # Number of times bus staying in WRITE state
system.mem_ctrls00.readReqs                         0                       # Number of read requests accepted
system.mem_ctrls00.writeReqs                        0                       # Number of write requests accepted
system.mem_ctrls00.readBursts                       0                       # Number of DRAM read bursts, including those serviced by the write queue
system.mem_ctrls00.writeBursts                      0                       # Number of DRAM write bursts, including those merged in the write queue
system.mem_ctrls00.bytesReadDRAM                    0                       # Total number of bytes read from DRAM
system.mem_ctrls00.bytesReadWrQ                     0                       # Total number of bytes read from write queue
system.mem_ctrls00.bytesWritten                     0                       # Total number of bytes written to DRAM
system.mem_ctrls00.bytesReadSys                     0                       # Total read bytes from the system interface side
system.mem_ctrls00.bytesWrittenSys                  0                       # Total written bytes from the system interface side
system.mem_ctrls00.servicedByWrQ                    0                       # Number of DRAM read bursts serviced by the write queue
system.mem_ctrls00.mergedWrBursts                   0                       # Number of DRAM write bursts merged with an existing one
system.mem_ctrls00.neitherReadNorWriteReqs            0                       # Number of requests that are neither read nor write
system.mem_ctrls00.perBankRdBursts::0               0                       # Per bank write bursts
system.mem_ctrls00.perBankRdBursts::1               0                       # Per bank write bursts
system.mem_ctrls00.perBankRdBursts::2               0                       # Per bank write bursts
system.mem_ctrls00.perBankRdBursts::3               0                       # Per bank write bursts
system.mem_ctrls00.perBankRdBursts::4               0                       # Per bank write bursts
system.mem_ctrls00.perBankRdBursts::5               0                       # Per bank write bursts
system.mem_ctrls00.perBankRdBursts::6               0                       # Per bank write bursts
system.mem_ctrls00.perBankRdBursts::7               0                       # Per bank write bursts
system.mem_ctrls00.perBankRdBursts::8               0                       # Per bank write bursts
system.mem_ctrls00.perBankRdBursts::9               0                       # Per bank write bursts
system.mem_ctrls00.perBankRdBursts::10              0                       # Per bank write bursts
system.mem_ctrls00.perBankRdBursts::11              0                       # Per bank write bursts
system.mem_ctrls00.perBankRdBursts::12              0                       # Per bank write bursts
system.mem_ctrls00.perBankRdBursts::13              0                       # Per bank write bursts
system.mem_ctrls00.perBankRdBursts::14              0                       # Per bank write bursts
system.mem_ctrls00.perBankRdBursts::15              0                       # Per bank write bursts
system.mem_ctrls00.perBankWrBursts::0               0                       # Per bank write bursts
system.mem_ctrls00.perBankWrBursts::1               0                       # Per bank write bursts
system.mem_ctrls00.perBankWrBursts::2               0                       # Per bank write bursts
system.mem_ctrls00.perBankWrBursts::3               0                       # Per bank write bursts
system.mem_ctrls00.perBankWrBursts::4               0                       # Per bank write bursts
system.mem_ctrls00.perBankWrBursts::5               0                       # Per bank write bursts
system.mem_ctrls00.perBankWrBursts::6               0                       # Per bank write bursts
system.mem_ctrls00.perBankWrBursts::7               0                       # Per bank write bursts
system.mem_ctrls00.perBankWrBursts::8               0                       # Per bank write bursts
system.mem_ctrls00.perBankWrBursts::9               0                       # Per bank write bursts
system.mem_ctrls00.perBankWrBursts::10              0                       # Per bank write bursts
system.mem_ctrls00.perBankWrBursts::11              0                       # Per bank write bursts
system.mem_ctrls00.perBankWrBursts::12              0                       # Per bank write bursts
system.mem_ctrls00.perBankWrBursts::13              0                       # Per bank write bursts
system.mem_ctrls00.perBankWrBursts::14              0                       # Per bank write bursts
system.mem_ctrls00.perBankWrBursts::15              0                       # Per bank write bursts
system.mem_ctrls00.numRdRetry                       0                       # Number of times read queue was full causing retry
system.mem_ctrls00.numWrRetry                       0                       # Number of times write queue was full causing retry
system.mem_ctrls00.totGap                           0                       # Total gap between requests
system.mem_ctrls00.readPktSize::0                   0                       # Read request sizes (log2)
system.mem_ctrls00.readPktSize::1                   0                       # Read request sizes (log2)
system.mem_ctrls00.readPktSize::2                   0                       # Read request sizes (log2)
system.mem_ctrls00.readPktSize::3                   0                       # Read request sizes (log2)
system.mem_ctrls00.readPktSize::4                   0                       # Read request sizes (log2)
system.mem_ctrls00.readPktSize::5                   0                       # Read request sizes (log2)
system.mem_ctrls00.readPktSize::6                   0                       # Read request sizes (log2)
system.mem_ctrls00.writePktSize::0                  0                       # Write request sizes (log2)
system.mem_ctrls00.writePktSize::1                  0                       # Write request sizes (log2)
system.mem_ctrls00.writePktSize::2                  0                       # Write request sizes (log2)
system.mem_ctrls00.writePktSize::3                  0                       # Write request sizes (log2)
system.mem_ctrls00.writePktSize::4                  0                       # Write request sizes (log2)
system.mem_ctrls00.writePktSize::5                  0                       # Write request sizes (log2)
system.mem_ctrls00.writePktSize::6                  0                       # Write request sizes (log2)
system.mem_ctrls00.rdQLenPdf::0                     0                       # What read queue length does an incoming req see
system.mem_ctrls00.rdQLenPdf::1                     0                       # What read queue length does an incoming req see
system.mem_ctrls00.rdQLenPdf::2                     0                       # What read queue length does an incoming req see
system.mem_ctrls00.rdQLenPdf::3                     0                       # What read queue length does an incoming req see
system.mem_ctrls00.rdQLenPdf::4                     0                       # What read queue length does an incoming req see
system.mem_ctrls00.rdQLenPdf::5                     0                       # What read queue length does an incoming req see
system.mem_ctrls00.rdQLenPdf::6                     0                       # What read queue length does an incoming req see
system.mem_ctrls00.rdQLenPdf::7                     0                       # What read queue length does an incoming req see
system.mem_ctrls00.rdQLenPdf::8                     0                       # What read queue length does an incoming req see
system.mem_ctrls00.rdQLenPdf::9                     0                       # What read queue length does an incoming req see
system.mem_ctrls00.rdQLenPdf::10                    0                       # What read queue length does an incoming req see
system.mem_ctrls00.rdQLenPdf::11                    0                       # What read queue length does an incoming req see
system.mem_ctrls00.rdQLenPdf::12                    0                       # What read queue length does an incoming req see
system.mem_ctrls00.rdQLenPdf::13                    0                       # What read queue length does an incoming req see
system.mem_ctrls00.rdQLenPdf::14                    0                       # What read queue length does an incoming req see
system.mem_ctrls00.rdQLenPdf::15                    0                       # What read queue length does an incoming req see
system.mem_ctrls00.rdQLenPdf::16                    0                       # What read queue length does an incoming req see
system.mem_ctrls00.rdQLenPdf::17                    0                       # What read queue length does an incoming req see
system.mem_ctrls00.rdQLenPdf::18                    0                       # What read queue length does an incoming req see
system.mem_ctrls00.rdQLenPdf::19                    0                       # What read queue length does an incoming req see
system.mem_ctrls00.rdQLenPdf::20                    0                       # What read queue length does an incoming req see
system.mem_ctrls00.rdQLenPdf::21                    0                       # What read queue length does an incoming req see
system.mem_ctrls00.rdQLenPdf::22                    0                       # What read queue length does an incoming req see
system.mem_ctrls00.rdQLenPdf::23                    0                       # What read queue length does an incoming req see
system.mem_ctrls00.rdQLenPdf::24                    0                       # What read queue length does an incoming req see
system.mem_ctrls00.rdQLenPdf::25                    0                       # What read queue length does an incoming req see
system.mem_ctrls00.rdQLenPdf::26                    0                       # What read queue length does an incoming req see
system.mem_ctrls00.rdQLenPdf::27                    0                       # What read queue length does an incoming req see
system.mem_ctrls00.rdQLenPdf::28                    0                       # What read queue length does an incoming req see
system.mem_ctrls00.rdQLenPdf::29                    0                       # What read queue length does an incoming req see
system.mem_ctrls00.rdQLenPdf::30                    0                       # What read queue length does an incoming req see
system.mem_ctrls00.rdQLenPdf::31                    0                       # What read queue length does an incoming req see
system.mem_ctrls00.wrQLenPdf::0                     0                       # What write queue length does an incoming req see
system.mem_ctrls00.wrQLenPdf::1                     0                       # What write queue length does an incoming req see
system.mem_ctrls00.wrQLenPdf::2                     0                       # What write queue length does an incoming req see
system.mem_ctrls00.wrQLenPdf::3                     0                       # What write queue length does an incoming req see
system.mem_ctrls00.wrQLenPdf::4                     0                       # What write queue length does an incoming req see
system.mem_ctrls00.wrQLenPdf::5                     0                       # What write queue length does an incoming req see
system.mem_ctrls00.wrQLenPdf::6                     0                       # What write queue length does an incoming req see
system.mem_ctrls00.wrQLenPdf::7                     0                       # What write queue length does an incoming req see
system.mem_ctrls00.wrQLenPdf::8                     0                       # What write queue length does an incoming req see
system.mem_ctrls00.wrQLenPdf::9                     0                       # What write queue length does an incoming req see
system.mem_ctrls00.wrQLenPdf::10                    0                       # What write queue length does an incoming req see
system.mem_ctrls00.wrQLenPdf::11                    0                       # What write queue length does an incoming req see
system.mem_ctrls00.wrQLenPdf::12                    0                       # What write queue length does an incoming req see
system.mem_ctrls00.wrQLenPdf::13                    0                       # What write queue length does an incoming req see
system.mem_ctrls00.wrQLenPdf::14                    0                       # What write queue length does an incoming req see
system.mem_ctrls00.wrQLenPdf::15                    0                       # What write queue length does an incoming req see
system.mem_ctrls00.wrQLenPdf::16                    0                       # What write queue length does an incoming req see
system.mem_ctrls00.wrQLenPdf::17                    0                       # What write queue length does an incoming req see
system.mem_ctrls00.wrQLenPdf::18                    0                       # What write queue length does an incoming req see
system.mem_ctrls00.wrQLenPdf::19                    0                       # What write queue length does an incoming req see
system.mem_ctrls00.wrQLenPdf::20                    0                       # What write queue length does an incoming req see
system.mem_ctrls00.wrQLenPdf::21                    0                       # What write queue length does an incoming req see
system.mem_ctrls00.wrQLenPdf::22                    0                       # What write queue length does an incoming req see
system.mem_ctrls00.wrQLenPdf::23                    0                       # What write queue length does an incoming req see
system.mem_ctrls00.wrQLenPdf::24                    0                       # What write queue length does an incoming req see
system.mem_ctrls00.wrQLenPdf::25                    0                       # What write queue length does an incoming req see
system.mem_ctrls00.wrQLenPdf::26                    0                       # What write queue length does an incoming req see
system.mem_ctrls00.wrQLenPdf::27                    0                       # What write queue length does an incoming req see
system.mem_ctrls00.wrQLenPdf::28                    0                       # What write queue length does an incoming req see
system.mem_ctrls00.wrQLenPdf::29                    0                       # What write queue length does an incoming req see
system.mem_ctrls00.wrQLenPdf::30                    0                       # What write queue length does an incoming req see
system.mem_ctrls00.wrQLenPdf::31                    0                       # What write queue length does an incoming req see
system.mem_ctrls00.wrQLenPdf::32                    0                       # What write queue length does an incoming req see
system.mem_ctrls00.wrQLenPdf::33                    0                       # What write queue length does an incoming req see
system.mem_ctrls00.wrQLenPdf::34                    0                       # What write queue length does an incoming req see
system.mem_ctrls00.wrQLenPdf::35                    0                       # What write queue length does an incoming req see
system.mem_ctrls00.wrQLenPdf::36                    0                       # What write queue length does an incoming req see
system.mem_ctrls00.wrQLenPdf::37                    0                       # What write queue length does an incoming req see
system.mem_ctrls00.wrQLenPdf::38                    0                       # What write queue length does an incoming req see
system.mem_ctrls00.wrQLenPdf::39                    0                       # What write queue length does an incoming req see
system.mem_ctrls00.wrQLenPdf::40                    0                       # What write queue length does an incoming req see
system.mem_ctrls00.wrQLenPdf::41                    0                       # What write queue length does an incoming req see
system.mem_ctrls00.wrQLenPdf::42                    0                       # What write queue length does an incoming req see
system.mem_ctrls00.wrQLenPdf::43                    0                       # What write queue length does an incoming req see
system.mem_ctrls00.wrQLenPdf::44                    0                       # What write queue length does an incoming req see
system.mem_ctrls00.wrQLenPdf::45                    0                       # What write queue length does an incoming req see
system.mem_ctrls00.wrQLenPdf::46                    0                       # What write queue length does an incoming req see
system.mem_ctrls00.wrQLenPdf::47                    0                       # What write queue length does an incoming req see
system.mem_ctrls00.wrQLenPdf::48                    0                       # What write queue length does an incoming req see
system.mem_ctrls00.wrQLenPdf::49                    0                       # What write queue length does an incoming req see
system.mem_ctrls00.wrQLenPdf::50                    0                       # What write queue length does an incoming req see
system.mem_ctrls00.wrQLenPdf::51                    0                       # What write queue length does an incoming req see
system.mem_ctrls00.wrQLenPdf::52                    0                       # What write queue length does an incoming req see
system.mem_ctrls00.wrQLenPdf::53                    0                       # What write queue length does an incoming req see
system.mem_ctrls00.wrQLenPdf::54                    0                       # What write queue length does an incoming req see
system.mem_ctrls00.wrQLenPdf::55                    0                       # What write queue length does an incoming req see
system.mem_ctrls00.wrQLenPdf::56                    0                       # What write queue length does an incoming req see
system.mem_ctrls00.wrQLenPdf::57                    0                       # What write queue length does an incoming req see
system.mem_ctrls00.wrQLenPdf::58                    0                       # What write queue length does an incoming req see
system.mem_ctrls00.wrQLenPdf::59                    0                       # What write queue length does an incoming req see
system.mem_ctrls00.wrQLenPdf::60                    0                       # What write queue length does an incoming req see
system.mem_ctrls00.wrQLenPdf::61                    0                       # What write queue length does an incoming req see
system.mem_ctrls00.wrQLenPdf::62                    0                       # What write queue length does an incoming req see
system.mem_ctrls00.wrQLenPdf::63                    0                       # What write queue length does an incoming req see
system.mem_ctrls00.totQLat                          0                       # Total ticks spent queuing
system.mem_ctrls00.totMemAccLat                     0                       # Total ticks spent from burst creation until serviced by the DRAM
system.mem_ctrls00.totBusLat                        0                       # Total ticks spent in databus transfers
system.mem_ctrls00.avgQLat                        nan                       # Average queueing delay per DRAM burst
system.mem_ctrls00.avgBusLat                      nan                       # Average bus latency per DRAM burst
system.mem_ctrls00.avgMemAccLat                   nan                       # Average memory access latency per DRAM burst
system.mem_ctrls00.avgRdBW                       0.00                       # Average DRAM read bandwidth in MiByte/s
system.mem_ctrls00.avgWrBW                       0.00                       # Average achieved write bandwidth in MiByte/s
system.mem_ctrls00.avgRdBWSys                    0.00                       # Average system read bandwidth in MiByte/s
system.mem_ctrls00.avgWrBWSys                    0.00                       # Average system write bandwidth in MiByte/s
system.mem_ctrls00.peakBW                    12800.00                       # Theoretical peak bandwidth in MiByte/s
system.mem_ctrls00.busUtil                       0.00                       # Data bus utilization in percentage
system.mem_ctrls00.busUtilRead                   0.00                       # Data bus utilization in percentage for reads
system.mem_ctrls00.busUtilWrite                  0.00                       # Data bus utilization in percentage for writes
system.mem_ctrls00.avgRdQLen                     0.00                       # Average read queue length when enqueuing
system.mem_ctrls00.avgWrQLen                     0.00                       # Average write queue length when enqueuing
system.mem_ctrls00.readRowHits                      0                       # Number of row buffer hits during reads
system.mem_ctrls00.writeRowHits                     0                       # Number of row buffer hits during writes
system.mem_ctrls00.readRowHitRate                 nan                       # Row buffer hit rate for reads
system.mem_ctrls00.writeRowHitRate                nan                       # Row buffer hit rate for writes
system.mem_ctrls00.avgGap                         nan                       # Average gap between requests
system.mem_ctrls00.pageHitRate                    nan                       # Row buffer hit rate, read and write combined
system.mem_ctrls00_0.actEnergy                      0                       # Energy for activate commands per rank (pJ)
system.mem_ctrls00_0.preEnergy                      0                       # Energy for precharge commands per rank (pJ)
system.mem_ctrls00_0.readEnergy                     0                       # Energy for read commands per rank (pJ)
system.mem_ctrls00_0.writeEnergy                    0                       # Energy for write commands per rank (pJ)
system.mem_ctrls00_0.refreshEnergy       614640.000000                       # Energy for refresh commands per rank (pJ)
system.mem_ctrls00_0.actBackEnergy             112176                       # Energy for active background per rank (pJ)
system.mem_ctrls00_0.preBackEnergy            2997504                       # Energy for precharge background per rank (pJ)
system.mem_ctrls00_0.actPowerDownEnergy             0                       # Energy for active power-down per rank (pJ)
system.mem_ctrls00_0.prePowerDownEnergy       2889984                       # Energy for precharge power-down per rank (pJ)
system.mem_ctrls00_0.selfRefreshEnergy        8813520                       # Energy for self refresh per rank (pJ)
system.mem_ctrls00_0.totalEnergy             15427824                       # Total energy per rank (pJ)
system.mem_ctrls00_0.averagePower          308.556480                       # Core power per rank (mW)
system.mem_ctrls00_0.totalIdleTime               7526                       # Total Idle time Per DRAM Rank
system.mem_ctrls00_0.memoryStateTime::IDLE         7792                       # Time in different power states
system.mem_ctrls00_0.memoryStateTime::REF          260                       # Time in different power states
system.mem_ctrls00_0.memoryStateTime::SREF        34422                       # Time in different power states
system.mem_ctrls00_0.memoryStateTime::PRE_PDN         7526                       # Time in different power states
system.mem_ctrls00_0.memoryStateTime::ACT            0                       # Time in different power states
system.mem_ctrls00_0.memoryStateTime::ACT_PDN            0                       # Time in different power states
system.mem_ctrls00_1.actEnergy                      0                       # Energy for activate commands per rank (pJ)
system.mem_ctrls00_1.preEnergy                      0                       # Energy for precharge commands per rank (pJ)
system.mem_ctrls00_1.readEnergy                     0                       # Energy for read commands per rank (pJ)
system.mem_ctrls00_1.writeEnergy                    0                       # Energy for write commands per rank (pJ)
system.mem_ctrls00_1.refreshEnergy       614640.000000                       # Energy for refresh commands per rank (pJ)
system.mem_ctrls00_1.actBackEnergy             112176                       # Energy for active background per rank (pJ)
system.mem_ctrls00_1.preBackEnergy            2997504                       # Energy for precharge background per rank (pJ)
system.mem_ctrls00_1.actPowerDownEnergy             0                       # Energy for active power-down per rank (pJ)
system.mem_ctrls00_1.prePowerDownEnergy       2889984                       # Energy for precharge power-down per rank (pJ)
system.mem_ctrls00_1.selfRefreshEnergy        8813520                       # Energy for self refresh per rank (pJ)
system.mem_ctrls00_1.totalEnergy             15427824                       # Total energy per rank (pJ)
system.mem_ctrls00_1.averagePower          308.556480                       # Core power per rank (mW)
system.mem_ctrls00_1.totalIdleTime               7526                       # Total Idle time Per DRAM Rank
system.mem_ctrls00_1.memoryStateTime::IDLE         7792                       # Time in different power states
system.mem_ctrls00_1.memoryStateTime::REF          260                       # Time in different power states
system.mem_ctrls00_1.memoryStateTime::SREF        34422                       # Time in different power states
system.mem_ctrls00_1.memoryStateTime::PRE_PDN         7526                       # Time in different power states
system.mem_ctrls00_1.memoryStateTime::ACT            0                       # Time in different power states
system.mem_ctrls00_1.memoryStateTime::ACT_PDN            0                       # Time in different power states
system.mem_ctrls01.pwrStateResidencyTicks::UNDEFINED        50000                       # Cumulative time (in ticks) in various power states
system.mem_ctrls01.priorityMinLatency    0.000000000000                       # per QoS priority minimum request to response latency (s)
system.mem_ctrls01.priorityMaxLatency    0.000000000000                       # per QoS priority maximum request to response latency (s)
system.mem_ctrls01.numReadWriteTurnArounds            0                       # Number of turnarounds from READ to WRITE
system.mem_ctrls01.numWriteReadTurnArounds            0                       # Number of turnarounds from WRITE to READ
system.mem_ctrls01.numStayReadState                 2                       # Number of times bus staying in READ state
system.mem_ctrls01.numStayWriteState                0                       # Number of times bus staying in WRITE state
system.mem_ctrls01.readReqs                         0                       # Number of read requests accepted
system.mem_ctrls01.writeReqs                        0                       # Number of write requests accepted
system.mem_ctrls01.readBursts                       0                       # Number of DRAM read bursts, including those serviced by the write queue
system.mem_ctrls01.writeBursts                      0                       # Number of DRAM write bursts, including those merged in the write queue
system.mem_ctrls01.bytesReadDRAM                    0                       # Total number of bytes read from DRAM
system.mem_ctrls01.bytesReadWrQ                     0                       # Total number of bytes read from write queue
system.mem_ctrls01.bytesWritten                     0                       # Total number of bytes written to DRAM
system.mem_ctrls01.bytesReadSys                     0                       # Total read bytes from the system interface side
system.mem_ctrls01.bytesWrittenSys                  0                       # Total written bytes from the system interface side
system.mem_ctrls01.servicedByWrQ                    0                       # Number of DRAM read bursts serviced by the write queue
system.mem_ctrls01.mergedWrBursts                   0                       # Number of DRAM write bursts merged with an existing one
system.mem_ctrls01.neitherReadNorWriteReqs            0                       # Number of requests that are neither read nor write
system.mem_ctrls01.perBankRdBursts::0               0                       # Per bank write bursts
system.mem_ctrls01.perBankRdBursts::1               0                       # Per bank write bursts
system.mem_ctrls01.perBankRdBursts::2               0                       # Per bank write bursts
system.mem_ctrls01.perBankRdBursts::3               0                       # Per bank write bursts
system.mem_ctrls01.perBankRdBursts::4               0                       # Per bank write bursts
system.mem_ctrls01.perBankRdBursts::5               0                       # Per bank write bursts
system.mem_ctrls01.perBankRdBursts::6               0                       # Per bank write bursts
system.mem_ctrls01.perBankRdBursts::7               0                       # Per bank write bursts
system.mem_ctrls01.perBankRdBursts::8               0                       # Per bank write bursts
system.mem_ctrls01.perBankRdBursts::9               0                       # Per bank write bursts
system.mem_ctrls01.perBankRdBursts::10              0                       # Per bank write bursts
system.mem_ctrls01.perBankRdBursts::11              0                       # Per bank write bursts
system.mem_ctrls01.perBankRdBursts::12              0                       # Per bank write bursts
system.mem_ctrls01.perBankRdBursts::13              0                       # Per bank write bursts
system.mem_ctrls01.perBankRdBursts::14              0                       # Per bank write bursts
system.mem_ctrls01.perBankRdBursts::15              0                       # Per bank write bursts
system.mem_ctrls01.perBankWrBursts::0               0                       # Per bank write bursts
system.mem_ctrls01.perBankWrBursts::1               0                       # Per bank write bursts
system.mem_ctrls01.perBankWrBursts::2               0                       # Per bank write bursts
system.mem_ctrls01.perBankWrBursts::3               0                       # Per bank write bursts
system.mem_ctrls01.perBankWrBursts::4               0                       # Per bank write bursts
system.mem_ctrls01.perBankWrBursts::5               0                       # Per bank write bursts
system.mem_ctrls01.perBankWrBursts::6               0                       # Per bank write bursts
system.mem_ctrls01.perBankWrBursts::7               0                       # Per bank write bursts
system.mem_ctrls01.perBankWrBursts::8               0                       # Per bank write bursts
system.mem_ctrls01.perBankWrBursts::9               0                       # Per bank write bursts
system.mem_ctrls01.perBankWrBursts::10              0                       # Per bank write bursts
system.mem_ctrls01.perBankWrBursts::11              0                       # Per bank write bursts
system.mem_ctrls01.perBankWrBursts::12              0                       # Per bank write bursts
system.mem_ctrls01.perBankWrBursts::13              0                       # Per bank write bursts
system.mem_ctrls01.perBankWrBursts::14              0                       # Per bank write bursts
system.mem_ctrls01.perBankWrBursts::15              0                       # Per bank write bursts
system.mem_ctrls01.numRdRetry                       0                       # Number of times read queue was full causing retry
system.mem_ctrls01.numWrRetry                       0                       # Number of times write queue was full causing retry
system.mem_ctrls01.totGap                           0                       # Total gap between requests
system.mem_ctrls01.readPktSize::0                   0                       # Read request sizes (log2)
system.mem_ctrls01.readPktSize::1                   0                       # Read request sizes (log2)
system.mem_ctrls01.readPktSize::2                   0                       # Read request sizes (log2)
system.mem_ctrls01.readPktSize::3                   0                       # Read request sizes (log2)
system.mem_ctrls01.readPktSize::4                   0                       # Read request sizes (log2)
system.mem_ctrls01.readPktSize::5                   0                       # Read request sizes (log2)
system.mem_ctrls01.readPktSize::6                   0                       # Read request sizes (log2)
system.mem_ctrls01.writePktSize::0                  0                       # Write request sizes (log2)
system.mem_ctrls01.writePktSize::1                  0                       # Write request sizes (log2)
system.mem_ctrls01.writePktSize::2                  0                       # Write request sizes (log2)
system.mem_ctrls01.writePktSize::3                  0                       # Write request sizes (log2)
system.mem_ctrls01.writePktSize::4                  0                       # Write request sizes (log2)
system.mem_ctrls01.writePktSize::5                  0                       # Write request sizes (log2)
system.mem_ctrls01.writePktSize::6                  0                       # Write request sizes (log2)
system.mem_ctrls01.rdQLenPdf::0                     0                       # What read queue length does an incoming req see
system.mem_ctrls01.rdQLenPdf::1                     0                       # What read queue length does an incoming req see
system.mem_ctrls01.rdQLenPdf::2                     0                       # What read queue length does an incoming req see
system.mem_ctrls01.rdQLenPdf::3                     0                       # What read queue length does an incoming req see
system.mem_ctrls01.rdQLenPdf::4                     0                       # What read queue length does an incoming req see
system.mem_ctrls01.rdQLenPdf::5                     0                       # What read queue length does an incoming req see
system.mem_ctrls01.rdQLenPdf::6                     0                       # What read queue length does an incoming req see
system.mem_ctrls01.rdQLenPdf::7                     0                       # What read queue length does an incoming req see
system.mem_ctrls01.rdQLenPdf::8                     0                       # What read queue length does an incoming req see
system.mem_ctrls01.rdQLenPdf::9                     0                       # What read queue length does an incoming req see
system.mem_ctrls01.rdQLenPdf::10                    0                       # What read queue length does an incoming req see
system.mem_ctrls01.rdQLenPdf::11                    0                       # What read queue length does an incoming req see
system.mem_ctrls01.rdQLenPdf::12                    0                       # What read queue length does an incoming req see
system.mem_ctrls01.rdQLenPdf::13                    0                       # What read queue length does an incoming req see
system.mem_ctrls01.rdQLenPdf::14                    0                       # What read queue length does an incoming req see
system.mem_ctrls01.rdQLenPdf::15                    0                       # What read queue length does an incoming req see
system.mem_ctrls01.rdQLenPdf::16                    0                       # What read queue length does an incoming req see
system.mem_ctrls01.rdQLenPdf::17                    0                       # What read queue length does an incoming req see
system.mem_ctrls01.rdQLenPdf::18                    0                       # What read queue length does an incoming req see
system.mem_ctrls01.rdQLenPdf::19                    0                       # What read queue length does an incoming req see
system.mem_ctrls01.rdQLenPdf::20                    0                       # What read queue length does an incoming req see
system.mem_ctrls01.rdQLenPdf::21                    0                       # What read queue length does an incoming req see
system.mem_ctrls01.rdQLenPdf::22                    0                       # What read queue length does an incoming req see
system.mem_ctrls01.rdQLenPdf::23                    0                       # What read queue length does an incoming req see
system.mem_ctrls01.rdQLenPdf::24                    0                       # What read queue length does an incoming req see
system.mem_ctrls01.rdQLenPdf::25                    0                       # What read queue length does an incoming req see
system.mem_ctrls01.rdQLenPdf::26                    0                       # What read queue length does an incoming req see
system.mem_ctrls01.rdQLenPdf::27                    0                       # What read queue length does an incoming req see
system.mem_ctrls01.rdQLenPdf::28                    0                       # What read queue length does an incoming req see
system.mem_ctrls01.rdQLenPdf::29                    0                       # What read queue length does an incoming req see
system.mem_ctrls01.rdQLenPdf::30                    0                       # What read queue length does an incoming req see
system.mem_ctrls01.rdQLenPdf::31                    0                       # What read queue length does an incoming req see
system.mem_ctrls01.wrQLenPdf::0                     0                       # What write queue length does an incoming req see
system.mem_ctrls01.wrQLenPdf::1                     0                       # What write queue length does an incoming req see
system.mem_ctrls01.wrQLenPdf::2                     0                       # What write queue length does an incoming req see
system.mem_ctrls01.wrQLenPdf::3                     0                       # What write queue length does an incoming req see
system.mem_ctrls01.wrQLenPdf::4                     0                       # What write queue length does an incoming req see
system.mem_ctrls01.wrQLenPdf::5                     0                       # What write queue length does an incoming req see
system.mem_ctrls01.wrQLenPdf::6                     0                       # What write queue length does an incoming req see
system.mem_ctrls01.wrQLenPdf::7                     0                       # What write queue length does an incoming req see
system.mem_ctrls01.wrQLenPdf::8                     0                       # What write queue length does an incoming req see
system.mem_ctrls01.wrQLenPdf::9                     0                       # What write queue length does an incoming req see
system.mem_ctrls01.wrQLenPdf::10                    0                       # What write queue length does an incoming req see
system.mem_ctrls01.wrQLenPdf::11                    0                       # What write queue length does an incoming req see
system.mem_ctrls01.wrQLenPdf::12                    0                       # What write queue length does an incoming req see
system.mem_ctrls01.wrQLenPdf::13                    0                       # What write queue length does an incoming req see
system.mem_ctrls01.wrQLenPdf::14                    0                       # What write queue length does an incoming req see
system.mem_ctrls01.wrQLenPdf::15                    0                       # What write queue length does an incoming req see
system.mem_ctrls01.wrQLenPdf::16                    0                       # What write queue length does an incoming req see
system.mem_ctrls01.wrQLenPdf::17                    0                       # What write queue length does an incoming req see
system.mem_ctrls01.wrQLenPdf::18                    0                       # What write queue length does an incoming req see
system.mem_ctrls01.wrQLenPdf::19                    0                       # What write queue length does an incoming req see
system.mem_ctrls01.wrQLenPdf::20                    0                       # What write queue length does an incoming req see
system.mem_ctrls01.wrQLenPdf::21                    0                       # What write queue length does an incoming req see
system.mem_ctrls01.wrQLenPdf::22                    0                       # What write queue length does an incoming req see
system.mem_ctrls01.wrQLenPdf::23                    0                       # What write queue length does an incoming req see
system.mem_ctrls01.wrQLenPdf::24                    0                       # What write queue length does an incoming req see
system.mem_ctrls01.wrQLenPdf::25                    0                       # What write queue length does an incoming req see
system.mem_ctrls01.wrQLenPdf::26                    0                       # What write queue length does an incoming req see
system.mem_ctrls01.wrQLenPdf::27                    0                       # What write queue length does an incoming req see
system.mem_ctrls01.wrQLenPdf::28                    0                       # What write queue length does an incoming req see
system.mem_ctrls01.wrQLenPdf::29                    0                       # What write queue length does an incoming req see
system.mem_ctrls01.wrQLenPdf::30                    0                       # What write queue length does an incoming req see
system.mem_ctrls01.wrQLenPdf::31                    0                       # What write queue length does an incoming req see
system.mem_ctrls01.wrQLenPdf::32                    0                       # What write queue length does an incoming req see
system.mem_ctrls01.wrQLenPdf::33                    0                       # What write queue length does an incoming req see
system.mem_ctrls01.wrQLenPdf::34                    0                       # What write queue length does an incoming req see
system.mem_ctrls01.wrQLenPdf::35                    0                       # What write queue length does an incoming req see
system.mem_ctrls01.wrQLenPdf::36                    0                       # What write queue length does an incoming req see
system.mem_ctrls01.wrQLenPdf::37                    0                       # What write queue length does an incoming req see
system.mem_ctrls01.wrQLenPdf::38                    0                       # What write queue length does an incoming req see
system.mem_ctrls01.wrQLenPdf::39                    0                       # What write queue length does an incoming req see
system.mem_ctrls01.wrQLenPdf::40                    0                       # What write queue length does an incoming req see
system.mem_ctrls01.wrQLenPdf::41                    0                       # What write queue length does an incoming req see
system.mem_ctrls01.wrQLenPdf::42                    0                       # What write queue length does an incoming req see
system.mem_ctrls01.wrQLenPdf::43                    0                       # What write queue length does an incoming req see
system.mem_ctrls01.wrQLenPdf::44                    0                       # What write queue length does an incoming req see
system.mem_ctrls01.wrQLenPdf::45                    0                       # What write queue length does an incoming req see
system.mem_ctrls01.wrQLenPdf::46                    0                       # What write queue length does an incoming req see
system.mem_ctrls01.wrQLenPdf::47                    0                       # What write queue length does an incoming req see
system.mem_ctrls01.wrQLenPdf::48                    0                       # What write queue length does an incoming req see
system.mem_ctrls01.wrQLenPdf::49                    0                       # What write queue length does an incoming req see
system.mem_ctrls01.wrQLenPdf::50                    0                       # What write queue length does an incoming req see
system.mem_ctrls01.wrQLenPdf::51                    0                       # What write queue length does an incoming req see
system.mem_ctrls01.wrQLenPdf::52                    0                       # What write queue length does an incoming req see
system.mem_ctrls01.wrQLenPdf::53                    0                       # What write queue length does an incoming req see
system.mem_ctrls01.wrQLenPdf::54                    0                       # What write queue length does an incoming req see
system.mem_ctrls01.wrQLenPdf::55                    0                       # What write queue length does an incoming req see
system.mem_ctrls01.wrQLenPdf::56                    0                       # What write queue length does an incoming req see
system.mem_ctrls01.wrQLenPdf::57                    0                       # What write queue length does an incoming req see
system.mem_ctrls01.wrQLenPdf::58                    0                       # What write queue length does an incoming req see
system.mem_ctrls01.wrQLenPdf::59                    0                       # What write queue length does an incoming req see
system.mem_ctrls01.wrQLenPdf::60                    0                       # What write queue length does an incoming req see
system.mem_ctrls01.wrQLenPdf::61                    0                       # What write queue length does an incoming req see
system.mem_ctrls01.wrQLenPdf::62                    0                       # What write queue length does an incoming req see
system.mem_ctrls01.wrQLenPdf::63                    0                       # What write queue length does an incoming req see
system.mem_ctrls01.totQLat                          0                       # Total ticks spent queuing
system.mem_ctrls01.totMemAccLat                     0                       # Total ticks spent from burst creation until serviced by the DRAM
system.mem_ctrls01.totBusLat                        0                       # Total ticks spent in databus transfers
system.mem_ctrls01.avgQLat                        nan                       # Average queueing delay per DRAM burst
system.mem_ctrls01.avgBusLat                      nan                       # Average bus latency per DRAM burst
system.mem_ctrls01.avgMemAccLat                   nan                       # Average memory access latency per DRAM burst
system.mem_ctrls01.avgRdBW                       0.00                       # Average DRAM read bandwidth in MiByte/s
system.mem_ctrls01.avgWrBW                       0.00                       # Average achieved write bandwidth in MiByte/s
system.mem_ctrls01.avgRdBWSys                    0.00                       # Average system read bandwidth in MiByte/s
system.mem_ctrls01.avgWrBWSys                    0.00                       # Average system write bandwidth in MiByte/s
system.mem_ctrls01.peakBW                    12800.00                       # Theoretical peak bandwidth in MiByte/s
system.mem_ctrls01.busUtil                       0.00                       # Data bus utilization in percentage
system.mem_ctrls01.busUtilRead                   0.00                       # Data bus utilization in percentage for reads
system.mem_ctrls01.busUtilWrite                  0.00                       # Data bus utilization in percentage for writes
system.mem_ctrls01.avgRdQLen                     0.00                       # Average read queue length when enqueuing
system.mem_ctrls01.avgWrQLen                     0.00                       # Average write queue length when enqueuing
system.mem_ctrls01.readRowHits                      0                       # Number of row buffer hits during reads
system.mem_ctrls01.writeRowHits                     0                       # Number of row buffer hits during writes
system.mem_ctrls01.readRowHitRate                 nan                       # Row buffer hit rate for reads
system.mem_ctrls01.writeRowHitRate                nan                       # Row buffer hit rate for writes
system.mem_ctrls01.avgGap                         nan                       # Average gap between requests
system.mem_ctrls01.pageHitRate                    nan                       # Row buffer hit rate, read and write combined
system.mem_ctrls01_0.actEnergy                      0                       # Energy for activate commands per rank (pJ)
system.mem_ctrls01_0.preEnergy                      0                       # Energy for precharge commands per rank (pJ)
system.mem_ctrls01_0.readEnergy                     0                       # Energy for read commands per rank (pJ)
system.mem_ctrls01_0.writeEnergy                    0                       # Energy for write commands per rank (pJ)
system.mem_ctrls01_0.refreshEnergy       614640.000000                       # Energy for refresh commands per rank (pJ)
system.mem_ctrls01_0.actBackEnergy             112176                       # Energy for active background per rank (pJ)
system.mem_ctrls01_0.preBackEnergy            2997504                       # Energy for precharge background per rank (pJ)
system.mem_ctrls01_0.actPowerDownEnergy             0                       # Energy for active power-down per rank (pJ)
system.mem_ctrls01_0.prePowerDownEnergy       2889984                       # Energy for precharge power-down per rank (pJ)
system.mem_ctrls01_0.selfRefreshEnergy        8813520                       # Energy for self refresh per rank (pJ)
system.mem_ctrls01_0.totalEnergy             15427824                       # Total energy per rank (pJ)
system.mem_ctrls01_0.averagePower          308.556480                       # Core power per rank (mW)
system.mem_ctrls01_0.totalIdleTime               7526                       # Total Idle time Per DRAM Rank
system.mem_ctrls01_0.memoryStateTime::IDLE         7792                       # Time in different power states
system.mem_ctrls01_0.memoryStateTime::REF          260                       # Time in different power states
system.mem_ctrls01_0.memoryStateTime::SREF        34422                       # Time in different power states
system.mem_ctrls01_0.memoryStateTime::PRE_PDN         7526                       # Time in different power states
system.mem_ctrls01_0.memoryStateTime::ACT            0                       # Time in different power states
system.mem_ctrls01_0.memoryStateTime::ACT_PDN            0                       # Time in different power states
system.mem_ctrls01_1.actEnergy                      0                       # Energy for activate commands per rank (pJ)
system.mem_ctrls01_1.preEnergy                      0                       # Energy for precharge commands per rank (pJ)
system.mem_ctrls01_1.readEnergy                     0                       # Energy for read commands per rank (pJ)
system.mem_ctrls01_1.writeEnergy                    0                       # Energy for write commands per rank (pJ)
system.mem_ctrls01_1.refreshEnergy       614640.000000                       # Energy for refresh commands per rank (pJ)
system.mem_ctrls01_1.actBackEnergy             112176                       # Energy for active background per rank (pJ)
system.mem_ctrls01_1.preBackEnergy            2997504                       # Energy for precharge background per rank (pJ)
system.mem_ctrls01_1.actPowerDownEnergy             0                       # Energy for active power-down per rank (pJ)
system.mem_ctrls01_1.prePowerDownEnergy       2889984                       # Energy for precharge power-down per rank (pJ)
system.mem_ctrls01_1.selfRefreshEnergy        8813520                       # Energy for self refresh per rank (pJ)
system.mem_ctrls01_1.totalEnergy             15427824                       # Total energy per rank (pJ)
system.mem_ctrls01_1.averagePower          308.556480                       # Core power per rank (mW)
system.mem_ctrls01_1.totalIdleTime               7526                       # Total Idle time Per DRAM Rank
system.mem_ctrls01_1.memoryStateTime::IDLE         7792                       # Time in different power states
system.mem_ctrls01_1.memoryStateTime::REF          260                       # Time in different power states
system.mem_ctrls01_1.memoryStateTime::SREF        34422                       # Time in different power states
system.mem_ctrls01_1.memoryStateTime::PRE_PDN         7526                       # Time in different power states
system.mem_ctrls01_1.memoryStateTime::ACT            0                       # Time in different power states
system.mem_ctrls01_1.memoryStateTime::ACT_PDN            0                       # Time in different power states
system.mem_ctrls02.pwrStateResidencyTicks::UNDEFINED        50000                       # Cumulative time (in ticks) in various power states
system.mem_ctrls02.priorityMinLatency    0.000000000000                       # per QoS priority minimum request to response latency (s)
system.mem_ctrls02.priorityMaxLatency    0.000000000000                       # per QoS priority maximum request to response latency (s)
system.mem_ctrls02.numReadWriteTurnArounds            0                       # Number of turnarounds from READ to WRITE
system.mem_ctrls02.numWriteReadTurnArounds            0                       # Number of turnarounds from WRITE to READ
system.mem_ctrls02.numStayReadState                 2                       # Number of times bus staying in READ state
system.mem_ctrls02.numStayWriteState                0                       # Number of times bus staying in WRITE state
system.mem_ctrls02.readReqs                         0                       # Number of read requests accepted
system.mem_ctrls02.writeReqs                        0                       # Number of write requests accepted
system.mem_ctrls02.readBursts                       0                       # Number of DRAM read bursts, including those serviced by the write queue
system.mem_ctrls02.writeBursts                      0                       # Number of DRAM write bursts, including those merged in the write queue
system.mem_ctrls02.bytesReadDRAM                    0                       # Total number of bytes read from DRAM
system.mem_ctrls02.bytesReadWrQ                     0                       # Total number of bytes read from write queue
system.mem_ctrls02.bytesWritten                     0                       # Total number of bytes written to DRAM
system.mem_ctrls02.bytesReadSys                     0                       # Total read bytes from the system interface side
system.mem_ctrls02.bytesWrittenSys                  0                       # Total written bytes from the system interface side
system.mem_ctrls02.servicedByWrQ                    0                       # Number of DRAM read bursts serviced by the write queue
system.mem_ctrls02.mergedWrBursts                   0                       # Number of DRAM write bursts merged with an existing one
system.mem_ctrls02.neitherReadNorWriteReqs            0                       # Number of requests that are neither read nor write
system.mem_ctrls02.perBankRdBursts::0               0                       # Per bank write bursts
system.mem_ctrls02.perBankRdBursts::1               0                       # Per bank write bursts
system.mem_ctrls02.perBankRdBursts::2               0                       # Per bank write bursts
system.mem_ctrls02.perBankRdBursts::3               0                       # Per bank write bursts
system.mem_ctrls02.perBankRdBursts::4               0                       # Per bank write bursts
system.mem_ctrls02.perBankRdBursts::5               0                       # Per bank write bursts
system.mem_ctrls02.perBankRdBursts::6               0                       # Per bank write bursts
system.mem_ctrls02.perBankRdBursts::7               0                       # Per bank write bursts
system.mem_ctrls02.perBankRdBursts::8               0                       # Per bank write bursts
system.mem_ctrls02.perBankRdBursts::9               0                       # Per bank write bursts
system.mem_ctrls02.perBankRdBursts::10              0                       # Per bank write bursts
system.mem_ctrls02.perBankRdBursts::11              0                       # Per bank write bursts
system.mem_ctrls02.perBankRdBursts::12              0                       # Per bank write bursts
system.mem_ctrls02.perBankRdBursts::13              0                       # Per bank write bursts
system.mem_ctrls02.perBankRdBursts::14              0                       # Per bank write bursts
system.mem_ctrls02.perBankRdBursts::15              0                       # Per bank write bursts
system.mem_ctrls02.perBankWrBursts::0               0                       # Per bank write bursts
system.mem_ctrls02.perBankWrBursts::1               0                       # Per bank write bursts
system.mem_ctrls02.perBankWrBursts::2               0                       # Per bank write bursts
system.mem_ctrls02.perBankWrBursts::3               0                       # Per bank write bursts
system.mem_ctrls02.perBankWrBursts::4               0                       # Per bank write bursts
system.mem_ctrls02.perBankWrBursts::5               0                       # Per bank write bursts
system.mem_ctrls02.perBankWrBursts::6               0                       # Per bank write bursts
system.mem_ctrls02.perBankWrBursts::7               0                       # Per bank write bursts
system.mem_ctrls02.perBankWrBursts::8               0                       # Per bank write bursts
system.mem_ctrls02.perBankWrBursts::9               0                       # Per bank write bursts
system.mem_ctrls02.perBankWrBursts::10              0                       # Per bank write bursts
system.mem_ctrls02.perBankWrBursts::11              0                       # Per bank write bursts
system.mem_ctrls02.perBankWrBursts::12              0                       # Per bank write bursts
system.mem_ctrls02.perBankWrBursts::13              0                       # Per bank write bursts
system.mem_ctrls02.perBankWrBursts::14              0                       # Per bank write bursts
system.mem_ctrls02.perBankWrBursts::15              0                       # Per bank write bursts
system.mem_ctrls02.numRdRetry                       0                       # Number of times read queue was full causing retry
system.mem_ctrls02.numWrRetry                       0                       # Number of times write queue was full causing retry
system.mem_ctrls02.totGap                           0                       # Total gap between requests
system.mem_ctrls02.readPktSize::0                   0                       # Read request sizes (log2)
system.mem_ctrls02.readPktSize::1                   0                       # Read request sizes (log2)
system.mem_ctrls02.readPktSize::2                   0                       # Read request sizes (log2)
system.mem_ctrls02.readPktSize::3                   0                       # Read request sizes (log2)
system.mem_ctrls02.readPktSize::4                   0                       # Read request sizes (log2)
system.mem_ctrls02.readPktSize::5                   0                       # Read request sizes (log2)
system.mem_ctrls02.readPktSize::6                   0                       # Read request sizes (log2)
system.mem_ctrls02.writePktSize::0                  0                       # Write request sizes (log2)
system.mem_ctrls02.writePktSize::1                  0                       # Write request sizes (log2)
system.mem_ctrls02.writePktSize::2                  0                       # Write request sizes (log2)
system.mem_ctrls02.writePktSize::3                  0                       # Write request sizes (log2)
system.mem_ctrls02.writePktSize::4                  0                       # Write request sizes (log2)
system.mem_ctrls02.writePktSize::5                  0                       # Write request sizes (log2)
system.mem_ctrls02.writePktSize::6                  0                       # Write request sizes (log2)
system.mem_ctrls02.rdQLenPdf::0                     0                       # What read queue length does an incoming req see
system.mem_ctrls02.rdQLenPdf::1                     0                       # What read queue length does an incoming req see
system.mem_ctrls02.rdQLenPdf::2                     0                       # What read queue length does an incoming req see
system.mem_ctrls02.rdQLenPdf::3                     0                       # What read queue length does an incoming req see
system.mem_ctrls02.rdQLenPdf::4                     0                       # What read queue length does an incoming req see
system.mem_ctrls02.rdQLenPdf::5                     0                       # What read queue length does an incoming req see
system.mem_ctrls02.rdQLenPdf::6                     0                       # What read queue length does an incoming req see
system.mem_ctrls02.rdQLenPdf::7                     0                       # What read queue length does an incoming req see
system.mem_ctrls02.rdQLenPdf::8                     0                       # What read queue length does an incoming req see
system.mem_ctrls02.rdQLenPdf::9                     0                       # What read queue length does an incoming req see
system.mem_ctrls02.rdQLenPdf::10                    0                       # What read queue length does an incoming req see
system.mem_ctrls02.rdQLenPdf::11                    0                       # What read queue length does an incoming req see
system.mem_ctrls02.rdQLenPdf::12                    0                       # What read queue length does an incoming req see
system.mem_ctrls02.rdQLenPdf::13                    0                       # What read queue length does an incoming req see
system.mem_ctrls02.rdQLenPdf::14                    0                       # What read queue length does an incoming req see
system.mem_ctrls02.rdQLenPdf::15                    0                       # What read queue length does an incoming req see
system.mem_ctrls02.rdQLenPdf::16                    0                       # What read queue length does an incoming req see
system.mem_ctrls02.rdQLenPdf::17                    0                       # What read queue length does an incoming req see
system.mem_ctrls02.rdQLenPdf::18                    0                       # What read queue length does an incoming req see
system.mem_ctrls02.rdQLenPdf::19                    0                       # What read queue length does an incoming req see
system.mem_ctrls02.rdQLenPdf::20                    0                       # What read queue length does an incoming req see
system.mem_ctrls02.rdQLenPdf::21                    0                       # What read queue length does an incoming req see
system.mem_ctrls02.rdQLenPdf::22                    0                       # What read queue length does an incoming req see
system.mem_ctrls02.rdQLenPdf::23                    0                       # What read queue length does an incoming req see
system.mem_ctrls02.rdQLenPdf::24                    0                       # What read queue length does an incoming req see
system.mem_ctrls02.rdQLenPdf::25                    0                       # What read queue length does an incoming req see
system.mem_ctrls02.rdQLenPdf::26                    0                       # What read queue length does an incoming req see
system.mem_ctrls02.rdQLenPdf::27                    0                       # What read queue length does an incoming req see
system.mem_ctrls02.rdQLenPdf::28                    0                       # What read queue length does an incoming req see
system.mem_ctrls02.rdQLenPdf::29                    0                       # What read queue length does an incoming req see
system.mem_ctrls02.rdQLenPdf::30                    0                       # What read queue length does an incoming req see
system.mem_ctrls02.rdQLenPdf::31                    0                       # What read queue length does an incoming req see
system.mem_ctrls02.wrQLenPdf::0                     0                       # What write queue length does an incoming req see
system.mem_ctrls02.wrQLenPdf::1                     0                       # What write queue length does an incoming req see
system.mem_ctrls02.wrQLenPdf::2                     0                       # What write queue length does an incoming req see
system.mem_ctrls02.wrQLenPdf::3                     0                       # What write queue length does an incoming req see
system.mem_ctrls02.wrQLenPdf::4                     0                       # What write queue length does an incoming req see
system.mem_ctrls02.wrQLenPdf::5                     0                       # What write queue length does an incoming req see
system.mem_ctrls02.wrQLenPdf::6                     0                       # What write queue length does an incoming req see
system.mem_ctrls02.wrQLenPdf::7                     0                       # What write queue length does an incoming req see
system.mem_ctrls02.wrQLenPdf::8                     0                       # What write queue length does an incoming req see
system.mem_ctrls02.wrQLenPdf::9                     0                       # What write queue length does an incoming req see
system.mem_ctrls02.wrQLenPdf::10                    0                       # What write queue length does an incoming req see
system.mem_ctrls02.wrQLenPdf::11                    0                       # What write queue length does an incoming req see
system.mem_ctrls02.wrQLenPdf::12                    0                       # What write queue length does an incoming req see
system.mem_ctrls02.wrQLenPdf::13                    0                       # What write queue length does an incoming req see
system.mem_ctrls02.wrQLenPdf::14                    0                       # What write queue length does an incoming req see
system.mem_ctrls02.wrQLenPdf::15                    0                       # What write queue length does an incoming req see
system.mem_ctrls02.wrQLenPdf::16                    0                       # What write queue length does an incoming req see
system.mem_ctrls02.wrQLenPdf::17                    0                       # What write queue length does an incoming req see
system.mem_ctrls02.wrQLenPdf::18                    0                       # What write queue length does an incoming req see
system.mem_ctrls02.wrQLenPdf::19                    0                       # What write queue length does an incoming req see
system.mem_ctrls02.wrQLenPdf::20                    0                       # What write queue length does an incoming req see
system.mem_ctrls02.wrQLenPdf::21                    0                       # What write queue length does an incoming req see
system.mem_ctrls02.wrQLenPdf::22                    0                       # What write queue length does an incoming req see
system.mem_ctrls02.wrQLenPdf::23                    0                       # What write queue length does an incoming req see
system.mem_ctrls02.wrQLenPdf::24                    0                       # What write queue length does an incoming req see
system.mem_ctrls02.wrQLenPdf::25                    0                       # What write queue length does an incoming req see
system.mem_ctrls02.wrQLenPdf::26                    0                       # What write queue length does an incoming req see
system.mem_ctrls02.wrQLenPdf::27                    0                       # What write queue length does an incoming req see
system.mem_ctrls02.wrQLenPdf::28                    0                       # What write queue length does an incoming req see
system.mem_ctrls02.wrQLenPdf::29                    0                       # What write queue length does an incoming req see
system.mem_ctrls02.wrQLenPdf::30                    0                       # What write queue length does an incoming req see
system.mem_ctrls02.wrQLenPdf::31                    0                       # What write queue length does an incoming req see
system.mem_ctrls02.wrQLenPdf::32                    0                       # What write queue length does an incoming req see
system.mem_ctrls02.wrQLenPdf::33                    0                       # What write queue length does an incoming req see
system.mem_ctrls02.wrQLenPdf::34                    0                       # What write queue length does an incoming req see
system.mem_ctrls02.wrQLenPdf::35                    0                       # What write queue length does an incoming req see
system.mem_ctrls02.wrQLenPdf::36                    0                       # What write queue length does an incoming req see
system.mem_ctrls02.wrQLenPdf::37                    0                       # What write queue length does an incoming req see
system.mem_ctrls02.wrQLenPdf::38                    0                       # What write queue length does an incoming req see
system.mem_ctrls02.wrQLenPdf::39                    0                       # What write queue length does an incoming req see
system.mem_ctrls02.wrQLenPdf::40                    0                       # What write queue length does an incoming req see
system.mem_ctrls02.wrQLenPdf::41                    0                       # What write queue length does an incoming req see
system.mem_ctrls02.wrQLenPdf::42                    0                       # What write queue length does an incoming req see
system.mem_ctrls02.wrQLenPdf::43                    0                       # What write queue length does an incoming req see
system.mem_ctrls02.wrQLenPdf::44                    0                       # What write queue length does an incoming req see
system.mem_ctrls02.wrQLenPdf::45                    0                       # What write queue length does an incoming req see
system.mem_ctrls02.wrQLenPdf::46                    0                       # What write queue length does an incoming req see
system.mem_ctrls02.wrQLenPdf::47                    0                       # What write queue length does an incoming req see
system.mem_ctrls02.wrQLenPdf::48                    0                       # What write queue length does an incoming req see
system.mem_ctrls02.wrQLenPdf::49                    0                       # What write queue length does an incoming req see
system.mem_ctrls02.wrQLenPdf::50                    0                       # What write queue length does an incoming req see
system.mem_ctrls02.wrQLenPdf::51                    0                       # What write queue length does an incoming req see
system.mem_ctrls02.wrQLenPdf::52                    0                       # What write queue length does an incoming req see
system.mem_ctrls02.wrQLenPdf::53                    0                       # What write queue length does an incoming req see
system.mem_ctrls02.wrQLenPdf::54                    0                       # What write queue length does an incoming req see
system.mem_ctrls02.wrQLenPdf::55                    0                       # What write queue length does an incoming req see
system.mem_ctrls02.wrQLenPdf::56                    0                       # What write queue length does an incoming req see
system.mem_ctrls02.wrQLenPdf::57                    0                       # What write queue length does an incoming req see
system.mem_ctrls02.wrQLenPdf::58                    0                       # What write queue length does an incoming req see
system.mem_ctrls02.wrQLenPdf::59                    0                       # What write queue length does an incoming req see
system.mem_ctrls02.wrQLenPdf::60                    0                       # What write queue length does an incoming req see
system.mem_ctrls02.wrQLenPdf::61                    0                       # What write queue length does an incoming req see
system.mem_ctrls02.wrQLenPdf::62                    0                       # What write queue length does an incoming req see
system.mem_ctrls02.wrQLenPdf::63                    0                       # What write queue length does an incoming req see
system.mem_ctrls02.totQLat                          0                       # Total ticks spent queuing
system.mem_ctrls02.totMemAccLat                     0                       # Total ticks spent from burst creation until serviced by the DRAM
system.mem_ctrls02.totBusLat                        0                       # Total ticks spent in databus transfers
system.mem_ctrls02.avgQLat                        nan                       # Average queueing delay per DRAM burst
system.mem_ctrls02.avgBusLat                      nan                       # Average bus latency per DRAM burst
system.mem_ctrls02.avgMemAccLat                   nan                       # Average memory access latency per DRAM burst
system.mem_ctrls02.avgRdBW                       0.00                       # Average DRAM read bandwidth in MiByte/s
system.mem_ctrls02.avgWrBW                       0.00                       # Average achieved write bandwidth in MiByte/s
system.mem_ctrls02.avgRdBWSys                    0.00                       # Average system read bandwidth in MiByte/s
system.mem_ctrls02.avgWrBWSys                    0.00                       # Average system write bandwidth in MiByte/s
system.mem_ctrls02.peakBW                    12800.00                       # Theoretical peak bandwidth in MiByte/s
system.mem_ctrls02.busUtil                       0.00                       # Data bus utilization in percentage
system.mem_ctrls02.busUtilRead                   0.00                       # Data bus utilization in percentage for reads
system.mem_ctrls02.busUtilWrite                  0.00                       # Data bus utilization in percentage for writes
system.mem_ctrls02.avgRdQLen                     0.00                       # Average read queue length when enqueuing
system.mem_ctrls02.avgWrQLen                     0.00                       # Average write queue length when enqueuing
system.mem_ctrls02.readRowHits                      0                       # Number of row buffer hits during reads
system.mem_ctrls02.writeRowHits                     0                       # Number of row buffer hits during writes
system.mem_ctrls02.readRowHitRate                 nan                       # Row buffer hit rate for reads
system.mem_ctrls02.writeRowHitRate                nan                       # Row buffer hit rate for writes
system.mem_ctrls02.avgGap                         nan                       # Average gap between requests
system.mem_ctrls02.pageHitRate                    nan                       # Row buffer hit rate, read and write combined
system.mem_ctrls02_0.actEnergy                      0                       # Energy for activate commands per rank (pJ)
system.mem_ctrls02_0.preEnergy                      0                       # Energy for precharge commands per rank (pJ)
system.mem_ctrls02_0.readEnergy                     0                       # Energy for read commands per rank (pJ)
system.mem_ctrls02_0.writeEnergy                    0                       # Energy for write commands per rank (pJ)
system.mem_ctrls02_0.refreshEnergy       614640.000000                       # Energy for refresh commands per rank (pJ)
system.mem_ctrls02_0.actBackEnergy             112176                       # Energy for active background per rank (pJ)
system.mem_ctrls02_0.preBackEnergy            2997504                       # Energy for precharge background per rank (pJ)
system.mem_ctrls02_0.actPowerDownEnergy             0                       # Energy for active power-down per rank (pJ)
system.mem_ctrls02_0.prePowerDownEnergy       2889984                       # Energy for precharge power-down per rank (pJ)
system.mem_ctrls02_0.selfRefreshEnergy        8813520                       # Energy for self refresh per rank (pJ)
system.mem_ctrls02_0.totalEnergy             15427824                       # Total energy per rank (pJ)
system.mem_ctrls02_0.averagePower          308.556480                       # Core power per rank (mW)
system.mem_ctrls02_0.totalIdleTime               7526                       # Total Idle time Per DRAM Rank
system.mem_ctrls02_0.memoryStateTime::IDLE         7792                       # Time in different power states
system.mem_ctrls02_0.memoryStateTime::REF          260                       # Time in different power states
system.mem_ctrls02_0.memoryStateTime::SREF        34422                       # Time in different power states
system.mem_ctrls02_0.memoryStateTime::PRE_PDN         7526                       # Time in different power states
system.mem_ctrls02_0.memoryStateTime::ACT            0                       # Time in different power states
system.mem_ctrls02_0.memoryStateTime::ACT_PDN            0                       # Time in different power states
system.mem_ctrls02_1.actEnergy                      0                       # Energy for activate commands per rank (pJ)
system.mem_ctrls02_1.preEnergy                      0                       # Energy for precharge commands per rank (pJ)
system.mem_ctrls02_1.readEnergy                     0                       # Energy for read commands per rank (pJ)
system.mem_ctrls02_1.writeEnergy                    0                       # Energy for write commands per rank (pJ)
system.mem_ctrls02_1.refreshEnergy       614640.000000                       # Energy for refresh commands per rank (pJ)
system.mem_ctrls02_1.actBackEnergy             112176                       # Energy for active background per rank (pJ)
system.mem_ctrls02_1.preBackEnergy            2997504                       # Energy for precharge background per rank (pJ)
system.mem_ctrls02_1.actPowerDownEnergy             0                       # Energy for active power-down per rank (pJ)
system.mem_ctrls02_1.prePowerDownEnergy       2889984                       # Energy for precharge power-down per rank (pJ)
system.mem_ctrls02_1.selfRefreshEnergy        8813520                       # Energy for self refresh per rank (pJ)
system.mem_ctrls02_1.totalEnergy             15427824                       # Total energy per rank (pJ)
[...]
system.ruby.network.netifs23.pwrStateResidencyTicks::UNDEFINED        50000                       # Cumulative time (in ticks) in various power states
system.ruby.network.netifs24.pwrStateResidencyTicks::UNDEFINED        50000                       # Cumulative time (in ticks) in various power states
system.ruby.network.netifs25.pwrStateResidencyTicks::UNDEFINED        50000                       # Cumulative time (in ticks) in various power states
system.ruby.network.netifs26.pwrStateResidencyTicks::UNDEFINED        50000                       # Cumulative time (in ticks) in various power states
system.ruby.network.netifs27.pwrStateResidencyTicks::UNDEFINED        50000                       # Cumulative time (in ticks) in various power states
system.ruby.network.netifs28.pwrStateResidencyTicks::UNDEFINED        50000                       # Cumulative time (in ticks) in various power states
system.ruby.network.netifs29.pwrStateResidencyTicks::UNDEFINED        50000                       # Cumulative time (in ticks) in various power states
system.ruby.network.netifs30.pwrStateResidencyTicks::UNDEFINED        50000                       # Cumulative time (in ticks) in various power states
system.ruby.network.netifs31.pwrStateResidencyTicks::UNDEFINED        50000                       # Cumulative time (in ticks) in various power states
system.ruby.network.pwrStateResidencyTicks::UNDEFINED        50000                       # Cumulative time (in ticks) in various power states
system.ruby.network.packets_received     |      249240     61.20%     61.20% |      136989     33.64%     94.83% |       21043      5.17%    100.00%
system.ruby.network.packets_received::total       407272                      
system.ruby.network.packets_injected     |      249358     61.18%     61.18% |      137125     33.64%     94.82% |       21125      5.18%    100.00%
system.ruby.network.packets_injected::total       407608                      
system.ruby.network.packet_network_latency |     5578983                       |     5945721                       |     3956447                      
system.ruby.network.packet_queueing_latency |   461133602                       |  1422780087                       |   481523757                      
system.ruby.network.average_packet_vnet_latency |   22.383979                       |   43.402908                       |  188.017250                      
system.ruby.network.average_packet_vqueue_latency | 1850.158891                       |10386.090029                       |22882.847360                      
system.ruby.network.average_packet_network_latency    38.011823                      
system.ruby.network.average_packet_queueing_latency  5808.004100                      
system.ruby.network.average_packet_latency  5846.015923                      
system.ruby.network.flits_received       |      249240     43.29%     43.29% |      136989     23.79%     67.08% |      189555     32.92%    100.00%
system.ruby.network.flits_received::total       575784                      
system.ruby.network.flits_injected       |      249358     43.25%     43.25% |      137125     23.78%     67.03% |      190125     32.97%    100.00%
system.ruby.network.flits_injected::total       576608                      
system.ruby.network.flit_network_latency |     5578983                       |     5945721                       |    27807628                      
system.ruby.network.flit_queueing_latency |   461133602                       |  1422780087                       |  4341415509                      
system.ruby.network.priority_received    |      249240     43.29%     43.29% |      136989     23.79%     67.08% |      189555     32.92%    100.00%
system.ruby.network.priority_received::total       575784                      
system.ruby.network.priority_network_latency |     5578983                       |     5945721                       |    27807628                      
system.ruby.network.priority_queueing_latency |   461133602                       |  1422780087                       |  4341415509                      
system.ruby.network.average_priority_network_latency |   22.383979                       |   43.402908                       |  146.699523                      
system.ruby.network.average_priority_queueing_latency | 1850.158891                       |10386.090029                       |22903.197009                      
system.ruby.network.average_flit_vnet_latency |   22.383979                       |   43.402908                       |  146.699523                      
system.ruby.network.average_flit_vqueue_latency | 1850.158891                       |10386.090029                       |22903.197009                      
system.ruby.network.average_flit_network_latency    68.310915                      
system.ruby.network.average_flit_queueing_latency 10811.917660                      
system.ruby.network.average_flit_latency 10880.228575                      
system.ruby.network.ext_in_link_utilization       576465                      
system.ruby.network.ext_out_link_utilization       575796                      
system.ruby.network.int_link_utilization      1461693                      
system.ruby.network.avg_link_utilization    52.279080                      
system.ruby.network.avg_vc_load          |    9.461600     18.10%     18.10% |    6.650940     12.72%     30.82% |    4.124400      7.89%     38.71% |    2.255420      4.31%     43.02% |    6.300380     12.05%     55.08% |    3.441620      6.58%     61.66% |    1.789840      3.42%     65.08% |    0.987680      1.89%     66.97% |    5.388160     10.31%     77.28% |    4.669940      8.93%     86.21% |    3.958180      7.57%     93.78% |    3.250920      6.22%    100.00%
system.ruby.network.avg_vc_load::total      52.279080                      
system.ruby.network.average_hops             2.537431                      
system.sys_port_proxy.pwrStateResidencyTicks::UNDEFINED        50000                       # Cumulative time (in ticks) in various power states
system.ruby.LD.latency_hist_seqr::bucket_size            1                      
system.ruby.LD.latency_hist_seqr::max_bucket            9                      
system.ruby.LD.latency_hist_seqr::samples       266473                      
system.ruby.LD.latency_hist_seqr::mean              1                      
system.ruby.LD.latency_hist_seqr::gmean             1                      
system.ruby.LD.latency_hist_seqr         |           0      0.00%      0.00% |      266473    100.00%    100.00% |           0      0.00%    100.00% |           0      0.00%    100.00% |           0      0.00%    100.00% |           0      0.00%    100.00% |           0      0.00%    100.00% |           0      0.00%    100.00% |           0      0.00%    100.00% |           0      0.00%    100.00%
system.ruby.LD.latency_hist_seqr::total        266473                      
system.ruby.LD.hit_latency_hist_seqr::bucket_size            1                      
system.ruby.LD.hit_latency_hist_seqr::max_bucket            9                      
system.ruby.LD.hit_latency_hist_seqr::samples       266473                      
system.ruby.LD.hit_latency_hist_seqr::mean            1                      
system.ruby.LD.hit_latency_hist_seqr::gmean            1                      
system.ruby.LD.hit_latency_hist_seqr     |           0      0.00%      0.00% |      266473    100.00%    100.00% |           0      0.00%    100.00% |           0      0.00%    100.00% |           0      0.00%    100.00% |           0      0.00%    100.00% |           0      0.00%    100.00% |           0      0.00%    100.00% |           0      0.00%    100.00% |           0      0.00%    100.00%
system.ruby.LD.hit_latency_hist_seqr::total       266473                      
system.ruby.ST.latency_hist_seqr::bucket_size            1                      
system.ruby.ST.latency_hist_seqr::max_bucket            9                      
system.ruby.ST.latency_hist_seqr::samples       266756                      
system.ruby.ST.latency_hist_seqr::mean              1                      
system.ruby.ST.latency_hist_seqr::gmean             1                      
system.ruby.ST.latency_hist_seqr         |           0      0.00%      0.00% |      266756    100.00%    100.00% |           0      0.00%    100.00% |           0      0.00%    100.00% |           0      0.00%    100.00% |           0      0.00%    100.00% |           0      0.00%    100.00% |           0      0.00%    100.00% |           0      0.00%    100.00% |           0      0.00%    100.00%
system.ruby.ST.latency_hist_seqr::total        266756                      
system.ruby.ST.hit_latency_hist_seqr::bucket_size            1                      
system.ruby.ST.hit_latency_hist_seqr::max_bucket            9                      
system.ruby.ST.hit_latency_hist_seqr::samples       266756                      
system.ruby.ST.hit_latency_hist_seqr::mean            1                      
system.ruby.ST.hit_latency_hist_seqr::gmean            1                      
system.ruby.ST.hit_latency_hist_seqr     |           0      0.00%      0.00% |      266756    100.00%    100.00% |           0      0.00%    100.00% |           0      0.00%    100.00% |           0      0.00%    100.00% |           0      0.00%    100.00% |           0      0.00%    100.00% |           0      0.00%    100.00% |           0      0.00%    100.00% |           0      0.00%    100.00%
system.ruby.ST.hit_latency_hist_seqr::total       266756                      
system.ruby.IFETCH.latency_hist_seqr::bucket_size            1                      
system.ruby.IFETCH.latency_hist_seqr::max_bucket            9                      
system.ruby.IFETCH.latency_hist_seqr::samples       266001                      
system.ruby.IFETCH.latency_hist_seqr::mean            1                      
system.ruby.IFETCH.latency_hist_seqr::gmean            1                      
system.ruby.IFETCH.latency_hist_seqr     |           0      0.00%      0.00% |      266001    100.00%    100.00% |           0      0.00%    100.00% |           0      0.00%    100.00% |           0      0.00%    100.00% |           0      0.00%    100.00% |           0      0.00%    100.00% |           0      0.00%    100.00% |           0      0.00%    100.00% |           0      0.00%    100.00%
system.ruby.IFETCH.latency_hist_seqr::total       266001                      
system.ruby.IFETCH.hit_latency_hist_seqr::bucket_size            1                      
system.ruby.IFETCH.hit_latency_hist_seqr::max_bucket            9                      
system.ruby.IFETCH.hit_latency_hist_seqr::samples       266001                      
system.ruby.IFETCH.hit_latency_hist_seqr::mean            1                      
system.ruby.IFETCH.hit_latency_hist_seqr::gmean            1                      
system.ruby.IFETCH.hit_latency_hist_seqr |           0      0.00%      0.00% |      266001    100.00%    100.00% |           0      0.00%    100.00% |           0      0.00%    100.00% |           0      0.00%    100.00% |           0      0.00%    100.00% |           0      0.00%    100.00% |           0      0.00%    100.00% |           0      0.00%    100.00% |           0      0.00%    100.00%
system.ruby.IFETCH.hit_latency_hist_seqr::total       266001                      
system.ruby.Directory_Controller.Receive_Request |       15665      6.29%      6.29% |       15646      6.28%     12.56% |       15566      6.25%     18.81% |       15831      6.35%     25.16% |       15657      6.28%     31.44% |       15683      6.29%     37.73% |       15494      6.22%     43.95% |       15421      6.19%     50.14% |       15664      6.28%     56.42% |       15333      6.15%     62.58% |       15602      6.26%     68.84% |       15458      6.20%     75.04% |       15500      6.22%     81.26% |       15535      6.23%     87.49% |       15607      6.26%     93.75% |       15574      6.25%    100.00%
system.ruby.Directory_Controller.Receive_Request::total       249236                      
system.ruby.Directory_Controller.Receive_Forward |        8430      6.15%      6.15% |        8502      6.21%     12.36% |        8479      6.19%     18.55% |        8630      6.30%     24.85% |        8645      6.31%     31.16% |        8599      6.28%     37.44% |        8526      6.22%     43.66% |        8736      6.38%     50.04% |        8581      6.26%     56.30% |        8527      6.22%     62.53% |        8622      6.29%     68.82% |        8676      6.33%     75.16% |        8525      6.22%     81.38% |        8554      6.24%     87.62% |        8507      6.21%     93.84% |        8445      6.16%    100.00%
system.ruby.Directory_Controller.Receive_Forward::total       136984                      
system.ruby.Directory_Controller.Receive_Response |        1251      5.94%      5.94% |        1294      6.15%     12.09% |        1366      6.49%     18.59% |        1313      6.24%     24.83% |        1247      5.93%     30.75% |        1334      6.34%     37.09% |        1377      6.54%     43.63% |        1295      6.15%     49.79% |        1357      6.45%     56.24% |        1304      6.20%     62.43% |        1375      6.53%     68.97% |        1303      6.19%     75.16% |        1380      6.56%     81.72% |        1297      6.16%     87.88% |        1272      6.04%     93.93% |        1278      6.07%    100.00%
system.ruby.Directory_Controller.Receive_Response::total        21043                      
system.ruby.Directory_Controller.I.Receive_Request |       15665      6.29%      6.29% |       15646      6.28%     12.56% |       15566      6.25%     18.81% |       15831      6.35%     25.16% |       15657      6.28%     31.44% |       15683      6.29%     37.73% |       15494      6.22%     43.95% |       15421      6.19%     50.14% |       15664      6.28%     56.42% |       15333      6.15%     62.58% |       15602      6.26%     68.84% |       15458      6.20%     75.04% |       15500      6.22%     81.26% |       15535      6.23%     87.49% |       15607      6.26%     93.75% |       15574      6.25%    100.00%
system.ruby.Directory_Controller.I.Receive_Request::total       249236                      
system.ruby.Directory_Controller.I.Receive_Forward |        8430      6.15%      6.15% |        8502      6.21%     12.36% |        8479      6.19%     18.55% |        8630      6.30%     24.85% |        8645      6.31%     31.16% |        8599      6.28%     37.44% |        8526      6.22%     43.66% |        8736      6.38%     50.04% |        8581      6.26%     56.30% |        8527      6.22%     62.53% |        8622      6.29%     68.82% |        8676      6.33%     75.16% |        8525      6.22%     81.38% |        8554      6.24%     87.62% |        8507      6.21%     93.84% |        8445      6.16%    100.00%
system.ruby.Directory_Controller.I.Receive_Forward::total       136984                      
system.ruby.Directory_Controller.I.Receive_Response |        1251      5.94%      5.94% |        1294      6.15%     12.09% |        1366      6.49%     18.59% |        1313      6.24%     24.83% |        1247      5.93%     30.75% |        1334      6.34%     37.09% |        1377      6.54%     43.63% |        1295      6.15%     49.79% |        1357      6.45%     56.24% |        1304      6.20%     62.43% |        1375      6.53%     68.97% |        1303      6.19%     75.16% |        1380      6.56%     81.72% |        1297      6.16%     87.88% |        1272      6.04%     93.93% |        1278      6.07%    100.00%
system.ruby.Directory_Controller.I.Receive_Response::total        21043                      
system.ruby.L1Cache_Controller.Request   |       16739      6.28%      6.28% |       16687      6.26%     12.54% |       16563      6.22%     18.76% |       16712      6.27%     25.03% |       16527      6.20%     31.23% |       16831      6.32%     37.55% |       16732      6.28%     43.83% |       16448      6.17%     50.00% |       16625      6.24%     56.24% |       16642      6.25%     62.49% |       16831      6.32%     68.80% |       16542      6.21%     75.01% |       16657      6.25%     81.26% |       16659      6.25%     87.51% |       16709      6.27%     93.78% |       16569      6.22%    100.00%
system.ruby.L1Cache_Controller.Request::total       266473                      
system.ruby.L1Cache_Controller.Forward   |       16587      6.24%      6.24% |       16461      6.19%     12.42% |       16605      6.24%     18.67% |       16604      6.24%     24.91% |       16752      6.30%     31.21% |       16481      6.20%     37.40% |       16657      6.26%     43.66% |       16592      6.24%     49.90% |       16635      6.25%     56.16% |       16647      6.26%     62.41% |       16544      6.22%     68.63% |       16771      6.30%     74.94% |       16662      6.26%     81.20% |       16627      6.25%     87.45% |       16721      6.29%     93.74% |       16655      6.26%    100.00%
system.ruby.L1Cache_Controller.Forward::total       266001                      
system.ruby.L1Cache_Controller.Response  |       16625      6.23%      6.23% |       16806      6.30%     12.53% |       16788      6.29%     18.83% |       16631      6.23%     25.06% |       16667      6.25%     31.31% |       16628      6.23%     37.54% |       16568      6.21%     43.75% |       16906      6.34%     50.09% |       16687      6.26%     56.35% |       16649      6.24%     62.59% |       16587      6.22%     68.81% |       16634      6.24%     75.04% |       16633      6.24%     81.28% |       16674      6.25%     87.53% |       16538      6.20%     93.73% |       16735      6.27%    100.00%
system.ruby.L1Cache_Controller.Response::total       266756                      
system.ruby.L1Cache_Controller.I.Request |       16739      6.28%      6.28% |       16687      6.26%     12.54% |       16563      6.22%     18.76% |       16712      6.27%     25.03% |       16527      6.20%     31.23% |       16831      6.32%     37.55% |       16732      6.28%     43.83% |       16448      6.17%     50.00% |       16625      6.24%     56.24% |       16642      6.25%     62.49% |       16831      6.32%     68.80% |       16542      6.21%     75.01% |       16657      6.25%     81.26% |       16659      6.25%     87.51% |       16709      6.27%     93.78% |       16569      6.22%    100.00%
system.ruby.L1Cache_Controller.I.Request::total       266473                      
system.ruby.L1Cache_Controller.I.Forward |       16587      6.24%      6.24% |       16461      6.19%     12.42% |       16605      6.24%     18.67% |       16604      6.24%     24.91% |       16752      6.30%     31.21% |       16481      6.20%     37.40% |       16657      6.26%     43.66% |       16592      6.24%     49.90% |       16635      6.25%     56.16% |       16647      6.26%     62.41% |       16544      6.22%     68.63% |       16771      6.30%     74.94% |       16662      6.26%     81.20% |       16627      6.25%     87.45% |       16721      6.29%     93.74% |       16655      6.26%    100.00%
system.ruby.L1Cache_Controller.I.Forward::total       266001                      
system.ruby.L1Cache_Controller.I.Response |       16625      6.23%      6.23% |       16806      6.30%     12.53% |       16788      6.29%     18.83% |       16631      6.23%     25.06% |       16667      6.25%     31.31% |       16628      6.23%     37.54% |       16568      6.21%     43.75% |       16906      6.34%     50.09% |       16687      6.26%     56.35% |       16649      6.24%     62.59% |       16587      6.22%     68.81% |       16634      6.24%     75.04% |       16633      6.24%     81.28% |       16674      6.25%     87.53% |       16538      6.20%     93.73% |       16735      6.27%    100.00%
system.ruby.L1Cache_Controller.I.Response::total       266756                      

---------- End Simulation Statistics   ----------
