
---------- Begin Simulation Statistics ----------
sim_seconds                                  0.000050                       # Number of seconds simulated
sim_ticks                                       50000                       # Number of ticks simulated
final_tick                                      50000                       # Number of ticks from beginning of simulation (restored from checkpoints and never reset)
sim_freq                                   1000000000                       # Frequency of simulated ticks
host_tick_rate                                   2405                       # Simulator tick rate (ticks/s)
host_mem_usage                                 931864                       # Number of bytes of host memory used
host_seconds                                    20.79                       # Real time elapsed on the host
system.voltage_domain.voltage                       1                       # Voltage in Volts
system.clk_domain.clock                             1                       # Clock period in ticks
system.mem_ctrls00.pwrStateResidencyTicks::UNDEFINED        50000                       # Cumulative time (in ticks) in various power states
system.mem_ctrls00.priorityMinLatency    0.000000000000                       # per QoS priority minimum request to response latency (s)
system.mem_ctrls00.priorityMaxLatency    0.000000000000                       # per QoS priority maximum request to response latency (s)
system.mem_ctrls00.numReadWriteTurnArounds            0                       # Number of turnarounds from READ to WRITE
system.mem_ctrls00.numWriteReadTurnArounds            0                       # Number of turnarounds from WRITE to READ
system.mem_ctrls00.numStayReadState                 2                       # Number of times bus staying in READ state
system.mem_ctrls00.numStayWriteState                0                       # Number of times bus staying in WRITE state
system.mem_ctrls00.readReqs                         0                       # Number of read requests accepted
system.mem_ctrls00.writeReqs                        0                       # Number of write requests accepted
system.mem_ctrls00.readBursts                       0                       # Number of DRAM read bursts, including those serviced by the write queue
system.mem_ctrls00.writeBursts                      0                       # Number of DRAM write bursts, including those merged in the write queue
system.mem_ctrls00.bytesReadDRAM                    0                       # Total number of bytes read from DRAM
system.mem_ctrls00.bytesReadWrQ                     0                       # Total number of bytes read from write queue
system.mem_ctrls00.bytesWritten                     0                       # Total number of bytes written to DRAM
system.mem_ctrls00.bytesReadSys                     0                       # Total read bytes from the system interface side
system.mem_ctrls00.bytesWrittenSys                  0                       # Total written bytes from the system interface side
system.mem_ctrls00.servicedByWrQ                    0                       # Number of DRAM read bursts serviced by the write queue
system.mem_ctrls00.mergedWrBursts                   0                       # Number of DRAM write bursts merged with an existing one
system.mem_ctrls00.neitherReadNorWriteReqs            0                       # Number of requests that are neither read nor write
system.mem_ctrls00.perBankRdBursts::0               0                       # Per bank write bursts
system.mem_ctrls00.perBankRdBursts::1               0                       # Per bank write bursts
system.mem_ctrls00.perBankRdBursts::2               0                       # Per bank write bursts
system.mem_ctrls00.perBankRdBursts::3               0                       # Per bank write bursts
system.mem_ctrls00.perBankRdBursts::4               0                       # Per bank write bursts
system.mem_ctrls00.perBankRdBursts::5               0                       # Per bank write bursts
system.mem_ctrls00.perBankRdBursts::6               0                       # Per bank write bursts
system.mem_ctrls00.perBankRdBursts::7               0                       # Per bank write bursts
system.mem_ctrls00.perBankRdBursts::8               0                       # Per bank write bursts
system.mem_ctrls00.perBankRdBursts::9               0                       # Per bank write bursts
system.mem_ctrls00.perBankRdBursts::10              0                       # Per bank write bursts
system.mem_ctrls00.perBankRdBursts::11              0                       # Per bank write bursts
system.mem_ctrls00.perBankRdBursts::12              0                       # Per bank write bursts
system.mem_ctrls00.perBankRdBursts::13              0                       # Per bank write bursts
system.mem_ctrls00.perBankRdBursts::14              0                       # Per bank write bursts
system.mem_ctrls00.perBankRdBursts::15              0                       # Per bank write bursts
system.mem_ctrls00.perBankWrBursts::0               0                       # Per bank write bursts
system.mem_ctrls00.perBankWrBursts::1               0                       # Per bank write bursts
system.mem_ctrls00.perBankWrBursts::2               0                       # Per bank write bursts
system.mem_ctrls00.perBankWrBursts::3               0                       # Per bank write bursts
system.mem_ctrls00.perBankWrBursts::4               0                       # Per bank write bursts
system.mem_ctrls00.perBankWrBursts::5               0                       # Per bank write bursts
system.mem_ctrls00.perBankWrBursts::6               0                       # Per bank write bursts
system.mem_ctrls00.perBankWrBursts::7               0                       # Per bank write bursts
system.mem_ctrls00.perBankWrBursts::8               0                       # Per bank write bursts
system.mem_ctrls00.perBankWrBursts::9               0                       # Per bank write bursts
system.mem_ctrls00.perBankWrBursts::10              0                       # Per bank write bursts
system.mem_ctrls00.perBankWrBursts::11              0                       # Per bank write bursts
system.mem_ctrls00.perBankWrBursts::12              0                       # Per bank write bursts
system.mem_ctrls00.perBankWrBursts::13              0                       # Per bank write bursts
system.mem_ctrls00.perBankWrBursts::14              0                       # Per bank write bursts
system.mem_ctrls00.perBankWrBursts::15              0                       # Per bank write bursts
system.mem_ctrls00.numRdRetry                       0                       # Number of times read queue was full causing retry
system.mem_ctrls00.numWrRetry                       0                       # Number of times write queue was full causing retry
system.mem_ctrls00.totGap                           0                       # Total gap between requests
system.mem_ctrls00.readPktSize::0                   0                       # Read request sizes (log2)
system.mem_ctrls00.readPktSize::1                   0                       # Read request sizes (log2)
system.mem_ctrls00.readPktSize::2                   0                       # Read request sizes (log2)
system.mem_ctrls00.readPktSize::3                   0                       # Read request sizes (log2)
system.mem_ctrls00.readPktSize::4                   0                       # Read request sizes (log2)
system.mem_ctrls00.readPktSize::5                   0                       # Read request sizes (log2)
system.mem_ctrls00.readPktSize::6                   0                       # Read request sizes (log2)
system.mem_ctrls00.writePktSize::0                  0                       # Write request sizes (log2)
system.mem_ctrls00.writePktSize::1                  0                       # Write request sizes (log2)
system.mem_ctrls00.writePktSize::2                  0                       # Write request sizes (log2)
system.mem_ctrls00.writePktSize::3                  0                       # Write request sizes (log2)
system.mem_ctrls00.writePktSize::4                  0                       # Write request sizes (log2)
system.mem_ctrls00.writePktSize::5                  0                       # Write request sizes (log2)
system.mem_ctrls00.writePktSize::6                  0                       # Write request sizes (log2)
system.mem_ctrls00.rdQLenPdf::0                     0                       # What read queue length does an incoming req see
system.mem_ctrls00.rdQLenPdf::1                     0                       # What read queue length does an incoming req see
system.mem_ctrls00.rdQLenPdf::2                     0                       # What read queue length does an incoming req see
system.mem_ctrls00.rdQLenPdf::3                     0                       # What read queue length does an incoming req see
system.mem_ctrls00.rdQLenPdf::4                     0                       # What read queue length does an incoming req see
system.mem_ctrls00.rdQLenPdf::5                     0                       # What read queue length does an incoming req see
system.mem_ctrls00.rdQLenPdf::6                     0                       # What read queue length does an incoming req see
system.mem_ctrls00.rdQLenPdf::7                     0                       # What read queue length does an incoming req see
system.mem_ctrls00.rdQLenPdf::8                     0                       # What read queue length does an incoming req see
system.mem_ctrls00.rdQLenPdf::9                     0                       # What read queue length does an incoming req see
system.mem_ctrls00.rdQLenPdf::10                    0                       # What read queue length does an incoming req see
system.mem_ctrls00.rdQLenPdf::11                    0                       # What read queue length does an incoming req see
system.mem_ctrls00.rdQLenPdf::12                    0                       # What read queue length does an incoming req see
system.mem_ctrls00.rdQLenPdf::13                    0                       # What read queue length does an incoming req see
system.mem_ctrls00.rdQLenPdf::14                    0                       # What read queue length does an incoming req see
system.mem_ctrls00.rdQLenPdf::15                    0                       # What read queue length does an incoming req see
system.mem_ctrls00.rdQLenPdf::16                    0                       # What read queue length does an incoming req see
system.mem_ctrls00.rdQLenPdf::17                    0                       # What read queue length does an incoming req see
system.mem_ctrls00.rdQLenPdf::18                    0                       # What read queue length does an incoming req see
system.mem_ctrls00.rdQLenPdf::19                    0                       # What read queue length does an incoming req see
system.mem_ctrls00.rdQLenPdf::20                    0                       # What read queue length does an incoming req see
system.mem_ctrls00.rdQLenPdf::21                    0                       # What read queue length does an incoming req see
system.mem_ctrls00.rdQLenPdf::22                    0                       # What read queue length does an incoming req see
system.mem_ctrls00.rdQLenPdf::23                    0                       # What read queue length does an incoming req see
system.mem_ctrls00.rdQLenPdf::24                    0                       # What read queue length does an incoming req see
system.mem_ctrls00.rdQLenPdf::25                    0                       # What read queue length does an incoming req see
system.mem_ctrls00.rdQLenPdf::26                    0                       # What read queue length does an incoming req see
system.mem_ctrls00.rdQLenPdf::27                    0                       # What read queue length does an incoming req see
system.mem_ctrls00.rdQLenPdf::28                    0                       # What read queue length does an incoming req see
system.mem_ctrls00.rdQLenPdf::29                    0                       # What read queue length does an incoming req see
system.mem_ctrls00.rdQLenPdf::30                    0                       # What read queue length does an incoming req see
system.mem_ctrls00.rdQLenPdf::31                    0                       # What read queue length does an incoming req see
system.mem_ctrls00.wrQLenPdf::0                     0                       # What write queue length does an incoming req see
system.mem_ctrls00.wrQLenPdf::1                     0                       # What write queue length does an incoming req see
system.mem_ctrls00.wrQLenPdf::2                     0                       # What write queue length does an incoming req see
system.mem_ctrls00.wrQLenPdf::3                     0                       # What write queue length does an incoming req see
system.mem_ctrls00.wrQLenPdf::4                     0                       # What write queue length does an incoming req see
system.mem_ctrls00.wrQLenPdf::5                     0                       # What write queue length does an incoming req see
system.mem_ctrls00.wrQLenPdf::6                     0                       # What write queue length does an incoming req see
system.mem_ctrls00.wrQLenPdf::7                     0                       # What write queue length does an incoming req see
system.mem_ctrls00.wrQLenPdf::8                     0                       # What write queue length does an incoming req see
system.mem_ctrls00.wrQLenPdf::9                     0                       # What write queue length does an incoming req see
system.mem_ctrls00.wrQLenPdf::10                    0                       # What write queue length does an incoming req see
system.mem_ctrls00.wrQLenPdf::11                    0                       # What write queue length does an incoming req see
system.mem_ctrls00.wrQLenPdf::12                    0                       # What write queue length does an incoming req see
system.mem_ctrls00.wrQLenPdf::13                    0                       # What write queue length does an incoming req see
system.mem_ctrls00.wrQLenPdf::14                    0                       # What write queue length does an incoming req see
system.mem_ctrls00.wrQLenPdf::15                    0                       # What write queue length does an incoming req see
system.mem_ctrls00.wrQLenPdf::16                    0                       # What write queue length does an incoming req see
system.mem_ctrls00.wrQLenPdf::17                    0                       # What write queue length does an incoming req see
system.mem_ctrls00.wrQLenPdf::18                    0                       # What write queue length does an incoming req see
system.mem_ctrls00.wrQLenPdf::19                    0                       # What write queue length does an incoming req see
system.mem_ctrls00.wrQLenPdf::20                    0                       # What write queue length does an incoming req see
system.mem_ctrls00.wrQLenPdf::21                    0                       # What write queue length does an incoming req see
system.mem_ctrls00.wrQLenPdf::22                    0                       # What write queue length does an incoming req see
system.mem_ctrls00.wrQLenPdf::23                    0                       # What write queue length does an incoming req see
system.mem_ctrls00.wrQLenPdf::24                    0                       # What write queue length does an incoming req see
system.mem_ctrls00.wrQLenPdf::25                    0                       # What write queue length does an incoming req see
system.mem_ctrls00.wrQLenPdf::26                    0                       # What write queue length does an incoming req see
system.mem_ctrls00.wrQLenPdf::27                    0                       # What write queue length does an incoming req see
system.mem_ctrls00.wrQLenPdf::28                    0                       # What write queue length does an incoming req see
system.mem_ctrls00.wrQLenPdf::29                    0                       # What write queue length does an incoming req see
system.mem_ctrls00.wrQLenPdf::30                    0                       # What write queue length does an incoming req see
system.mem_ctrls00.wrQLenPdf::31                    0                       # What write queue length does an incoming req see
system.mem_ctrls00.wrQLenPdf::32                    0                       # What write queue length does an incoming req see
system.mem_ctrls00.wrQLenPdf::33                    0                       # What write queue length does an incoming req see
system.mem_ctrls00.wrQLenPdf::34                    0                       # What write queue length does an incoming req see
system.mem_ctrls00.wrQLenPdf::35                    0                       # What write queue length does an incoming req see
system.mem_ctrls00.wrQLenPdf::36                    0                       # What write queue length does an incoming req see
system.mem_ctrls00.wrQLenPdf::37                    0                       # What write queue length does an incoming req see
system.mem_ctrls00.wrQLenPdf::38                    0                       # What write queue length does an incoming req see
system.mem_ctrls00.wrQLenPdf::39                    0                       # What write queue length does an incoming req see
system.mem_ctrls00.wrQLenPdf::40                    0                       # What write queue length does an incoming req see
system.mem_ctrls00.wrQLenPdf::41                    0                       # What write queue length does an incoming req see
system.mem_ctrls00.wrQLenPdf::42                    0                       # What write queue length does an incoming req see
system.mem_ctrls00.wrQLenPdf::43                    0                       # What write queue length does an incoming req see
system.mem_ctrls00.wrQLenPdf::44                    0                       # What write queue length does an incoming req see
system.mem_ctrls00.wrQLenPdf::45                    0                       # What write queue length does an incoming req see
system.mem_ctrls00.wrQLenPdf::46                    0                       # What write queue length does an incoming req see
system.mem_ctrls00.wrQLenPdf::47                    0                       # What write queue length does an incoming req see
system.mem_ctrls00.wrQLenPdf::48                    0                       # What write queue length does an incoming req see
system.mem_ctrls00.wrQLenPdf::49                    0                       # What write queue length does an incoming req see
system.mem_ctrls00.wrQLenPdf::50                    0                       # What write queue length does an incoming req see
system.mem_ctrls00.wrQLenPdf::51                    0                       # What write queue length does an incoming req see
system.mem_ctrls00.wrQLenPdf::52                    0                       # What write queue length does an incoming req see
system.mem_ctrls00.wrQLenPdf::53                    0                       # What write queue length does an incoming req see
system.mem_ctrls00.wrQLenPdf::54                    0                       # What write queue length does an incoming req see
system.mem_ctrls00.wrQLenPdf::55                    0                       # What write queue length does an incoming req see
system.mem_ctrls00.wrQLenPdf::56                    0                       # What write queue length does an incoming req see
system.mem_ctrls00.wrQLenPdf::57                    0                       # What write queue length does an incoming req see
system.mem_ctrls00.wrQLenPdf::58                    0                       # What write queue length does an incoming req see
system.mem_ctrls00.wrQLenPdf::59                    0                       # What write queue length does an incoming req see
system.mem_ctrls00.wrQLenPdf::60                    0                       # What write queue length does an incoming req see
system.mem_ctrls00.wrQLenPdf::61                    0                       # What write queue length does an incoming req see
system.mem_ctrls00.wrQLenPdf::62                    0                       # What write queue length does an incoming req see
system.mem_ctrls00.wrQLenPdf::63                    0                       # What write queue length does an incoming req see
system.mem_ctrls00.totQLat                          0                       # Total ticks spent queuing
system.mem_ctrls00.totMemAccLat                     0                       # Total ticks spent from burst creation until serviced by the DRAM
system.mem_ctrls00.totBusLat                        0                       # Total ticks spent in databus transfers
system.mem_ctrls00.avgQLat                        nan                       # Average queueing delay per DRAM burst
system.mem_ctrls00.avgBusLat                      nan                       # Average bus latency per DRAM burst
system.mem_ctrls00.avgMemAccLat                   nan                       # Average memory access latency per DRAM burst
system.mem_ctrls00.avgRdBW                       0.00                       # Average DRAM read bandwidth in MiByte/s
system.mem_ctrls00.avgWrBW                       0.00                       # Average achieved write bandwidth in MiByte/s
system.mem_ctrls00.avgRdBWSys                    0.00                       # Average system read bandwidth in MiByte/s
system.mem_ctrls00.avgWrBWSys                    0.00                       # Average system write bandwidth in MiByte/s
system.mem_ctrls00.peakBW                    12800.00                       # Theoretical peak bandwidth in MiByte/s
system.mem_ctrls00.busUtil                       0.00                       # Data bus utilization in percentage
system.mem_ctrls00.busUtilRead                   0.00                       # Data bus utilization in percentage for reads
system.mem_ctrls00.busUtilWrite                  0.00                       # Data bus utilization in percentage for writes
system.mem_ctrls00.avgRdQLen                     0.00                       # Average read queue length when enqueuing
system.mem_ctrls00.avgWrQLen                     0.00                       # Average write queue length when enqueuing
system.mem_ctrls00.readRowHits                      0                       # Number of row buffer hits during reads
system.mem_ctrls00.writeRowHits                     0                       # Number of row buffer hits during writes
system.mem_ctrls00.readRowHitRate                 nan                       # Row buffer hit rate for reads
system.mem_ctrls00.writeRowHitRate                nan                       # Row buffer hit rate for writes
system.mem_ctrls00.avgGap                         nan                       # Average gap between requests
system.mem_ctrls00.pageHitRate                    nan                       # Row buffer hit rate, read and write combined
system.mem_ctrls00_0.actEnergy                      0                       # Energy for activate commands per rank (pJ)
system.mem_ctrls00_0.preEnergy                      0                       # Energy for precharge commands per rank (pJ)
system.mem_ctrls00_0.readEnergy                     0                       # Energy for read commands per rank (pJ)
system.mem_ctrls00_0.writeEnergy                    0                       # Energy for write commands per rank (pJ)
system.mem_ctrls00_0.refreshEnergy       614640.000000                       # Energy for refresh commands per rank (pJ)
system.mem_ctrls00_0.actBackEnergy             112176                       # Energy for active background per rank (pJ)
system.mem_ctrls00_0.preBackEnergy            2997504                       # Energy for precharge background per rank (pJ)
system.mem_ctrls00_0.actPowerDownEnergy             0                       # Energy for active power-down per rank (pJ)
system.mem_ctrls00_0.prePowerDownEnergy       2889984                       # Energy for precharge power-down per rank (pJ)
system.mem_ctrls00_0.selfRefreshEnergy        8813520                       # Energy for self refresh per rank (pJ)
system.mem_ctrls00_0.totalEnergy             15427824                       # Total energy per rank (pJ)
system.mem_ctrls00_0.averagePower          308.556480                       # Core power per rank (mW)
system.mem_ctrls00_0.totalIdleTime               7526                       # Total Idle time Per DRAM Rank
system.mem_ctrls00_0.memoryStateTime::IDLE         7792                       # Time in different power states
system.mem_ctrls00_0.memoryStateTime::REF          260                       # Time in different power states
system.mem_ctrls00_0.memoryStateTime::SREF        34422                       # Time in different power states
system.mem_ctrls00_0.memoryStateTime::PRE_PDN         7526                       # Time in different power states
system.mem_ctrls00_0.memoryStateTime::ACT            0                       # Time in different power states
system.mem_ctrls00_0.memoryStateTime::ACT_PDN            0                       # Time in different power states
system.mem_ctrls00_1.actEnergy                      0                       # Energy for activate commands per rank (pJ)
system.mem_ctrls00_1.preEnergy                      0                       # Energy for precharge commands per rank (pJ)
system.mem_ctrls00_1.readEnergy                     0                       # Energy for read commands per rank (pJ)
system.mem_ctrls00_1.writeEnergy                    0                       # Energy for write commands per rank (pJ)
system.mem_ctrls00_1.refreshEnergy       614640.000000                       # Energy for refresh commands per rank (pJ)
system.mem_ctrls00_1.actBackEnergy             112176                       # Energy for active background per rank (pJ)
system.mem_ctrls00_1.preBackEnergy            2997504                       # Energy for precharge background per rank (pJ)
system.mem_ctrls00_1.actPowerDownEnergy             0                       # Energy for active power-down per rank (pJ)
system.mem_ctrls00_1.prePowerDownEnergy       2889984                       # Energy for precharge power-down per rank (pJ)
system.mem_ctrls00_1.selfRefreshEnergy        8813520                       # Energy for self refresh per rank (pJ)
system.mem_ctrls00_1.totalEnergy             15427824                       # Total energy per rank (pJ)
system.mem_ctrls00_1.averagePower          308.556480                       # Core power per rank (mW)
system.mem_ctrls00_1.totalIdleTime               7526                       # Total Idle time Per DRAM Rank
system.mem_ctrls00_1.memoryStateTime::IDLE         7792                       # Time in different power states
system.mem_ctrls00_1.memoryStateTime::REF          260                       # Time in different power states
system.mem_ctrls00_1.memoryStateTime::SREF        34422                       # Time in different power states
system.mem_ctrls00_1.memoryStateTime::PRE_PDN         7526                       # Time in different power states
system.mem_ctrls00_1.memoryStateTime::ACT            0                       # Time in different power states
system.mem_ctrls00_1.memoryStateTime::ACT_PDN            0                       # Time in different power states
system.mem_ctrls01.pwrStateResidencyTicks::UNDEFINED        50000                       # Cumulative time (in ticks) in various power states
system.mem_ctrls01.priorityMinLatency    0.000000000000                       # per QoS priority minimum request to response latency (s)
system.mem_ctrls01.priorityMaxLatency    0.000000000000                       # per QoS priority maximum request to response latency (s)
system.mem_ctrls01.numReadWriteTurnArounds            0                       # Number of turnarounds from READ to WRITE
system.mem_ctrls01.numWriteReadTurnArounds            0                       # Number of turnarounds from WRITE to READ
system.mem_ctrls01.numStayReadState                 2                       # Number of times bus staying in READ state
system.mem_ctrls01.numStayWriteState                0                       # Number of times bus staying in WRITE state
system.mem_ctrls01.readReqs                         0                       # Number of read requests accepted
system.mem_ctrls01.writeReqs                        0                       # Number of write requests accepted
system.mem_ctrls01.readBursts                       0                       # Number of DRAM read bursts, including those serviced by the write queue
system.mem_ctrls01.writeBursts                      0                       # Number of DRAM write bursts, including those merged in the write queue
system.mem_ctrls01.bytesReadDRAM                    0                       # Total number of bytes read from DRAM
system.mem_ctrls01.bytesReadWrQ                     0                       # Total number of bytes read from write queue
system.mem_ctrls01.bytesWritten                     0                       # Total number of bytes written to DRAM
system.mem_ctrls01.bytesReadSys                     0                       # Total read bytes from the system interface side
system.mem_ctrls01.bytesWrittenSys                  0                       # Total written bytes from the system interface side
system.mem_ctrls01.servicedByWrQ                    0                       # Number of DRAM read bursts serviced by the write queue
system.mem_ctrls01.mergedWrBursts                   0                       # Number of DRAM write bursts merged with an existing one
system.mem_ctrls01.neitherReadNorWriteReqs            0                       # Number of requests that are neither read nor write
system.mem_ctrls01.perBankRdBursts::0               0                       # Per bank write bursts
system.mem_ctrls01.perBankRdBursts::1               0                       # Per bank write bursts
system.mem_ctrls01.perBankRdBursts::2               0                       # Per bank write bursts
system.mem_ctrls01.perBankRdBursts::3               0                       # Per bank write bursts
system.mem_ctrls01.perBankRdBursts::4               0                       # Per bank write bursts
system.mem_ctrls01.perBankRdBursts::5               0                       # Per bank write bursts
system.mem_ctrls01.perBankRdBursts::6               0                       # Per bank write bursts
system.mem_ctrls01.perBankRdBursts::7               0                       # Per bank write bursts
system.mem_ctrls01.perBankRdBursts::8               0                       # Per bank write bursts
system.mem_ctrls01.perBankRdBursts::9               0                       # Per bank write bursts
system.mem_ctrls01.perBankRdBursts::10              0                       # Per bank write bursts
system.mem_ctrls01.perBankRdBursts::11              0                       # Per bank write bursts
system.mem_ctrls01.perBankRdBursts::12              0                       # Per bank write bursts
system.mem_ctrls01.perBankRdBursts::13              0                       # Per bank write bursts
system.mem_ctrls01.perBankRdBursts::14              0                       # Per bank write bursts
system.mem_ctrls01.perBankRdBursts::15              0                       # Per bank write bursts
system.mem_ctrls01.perBankWrBursts::0               0                       # Per bank write bursts
system.mem_ctrls01.perBankWrBursts::1               0                       # Per bank write bursts
system.mem_ctrls01.perBankWrBursts::2               0                       # Per bank write bursts
system.mem_ctrls01.perBankWrBursts::3               0                       # Per bank write bursts
system.mem_ctrls01.perBankWrBursts::4               0                       # Per bank write bursts
system.mem_ctrls01.perBankWrBursts::5               0                       # Per bank write bursts
system.mem_ctrls01.perBankWrBursts::6               0                       # Per bank write bursts
system.mem_ctrls01.perBankWrBursts::7               0                       # Per bank write bursts
system.mem_ctrls01.perBankWrBursts::8               0                       # Per bank write bursts
system.mem_ctrls01.perBankWrBursts::9               0                       # Per bank write bursts
system.mem_ctrls01.perBankWrBursts::10              0                       # Per bank write bursts
system.mem_ctrls01.perBankWrBursts::11              0                       # Per bank write bursts
system.mem_ctrls01.perBankWrBursts::12              0                       # Per bank write bursts
system.mem_ctrls01.perBankWrBursts::13              0                       # Per bank write bursts
system.mem_ctrls01.perBankWrBursts::14              0                       # Per bank write bursts
system.mem_ctrls01.perBankWrBursts::15              0                       # Per bank write bursts
system.mem_ctrls01.numRdRetry                       0                       # Number of times read queue was full causing retry
system.mem_ctrls01.numWrRetry                       0                       # Number of times write queue was full causing retry
system.mem_ctrls01.totGap                           0                       # Total gap between requests
system.mem_ctrls01.readPktSize::0                   0                       # Read request sizes (log2)
system.mem_ctrls01.readPktSize::1                   0                       # Read request sizes (log2)
system.mem_ctrls01.readPktSize::2                   0                       # Read request sizes (log2)
system.mem_ctrls01.readPktSize::3                   0                       # Read request sizes (log2)
system.mem_ctrls01.readPktSize::4                   0                       # Read request sizes (log2)
system.mem_ctrls01.readPktSize::5                   0                       # Read request sizes (log2)
system.mem_ctrls01.readPktSize::6                   0                       # Read request sizes (log2)
system.mem_ctrls01.writePktSize::0                  0                       # Write request sizes (log2)
system.mem_ctrls01.writePktSize::1                  0                       # Write request sizes (log2)
system.mem_ctrls01.writePktSize::2                  0                       # Write request sizes (log2)
system.mem_ctrls01.writePktSize::3                  0                       # Write request sizes (log2)
system.mem_ctrls01.writePktSize::4                  0                       # Write request sizes (log2)
system.mem_ctrls01.writePktSize::5                  0                       # Write request sizes (log2)
system.mem_ctrls01.writePktSize::6                  0                       # Write request sizes (log2)
system.mem_ctrls01.rdQLenPdf::0                     0                       # What read queue length does an incoming req see
system.mem_ctrls01.rdQLenPdf::1                     0                       # What read queue length does an incoming req see
system.mem_ctrls01.rdQLenPdf::2                     0                       # What read queue length does an incoming req see
system.mem_ctrls01.rdQLenPdf::3                     0                       # What read queue length does an incoming req see
system.mem_ctrls01.rdQLenPdf::4                     0                       # What read queue length does an incoming req see
system.mem_ctrls01.rdQLenPdf::5                     0                       # What read queue length does an incoming req see
system.mem_ctrls01.rdQLenPdf::6                     0                       # What read queue length does an incoming req see
system.mem_ctrls01.rdQLenPdf::7                     0                       # What read queue length does an incoming req see
system.mem_ctrls01.rdQLenPdf::8                     0                       # What read queue length does an incoming req see
system.mem_ctrls01.rdQLenPdf::9                     0                       # What read queue length does an incoming req see
system.mem_ctrls01.rdQLenPdf::10                    0                       # What read queue length does an incoming req see
system.mem_ctrls01.rdQLenPdf::11                    0                       # What read queue length does an incoming req see
system.mem_ctrls01.rdQLenPdf::12                    0                       # What read queue length does an incoming req see
system.mem_ctrls01.rdQLenPdf::13                    0                       # What read queue length does an incoming req see
system.mem_ctrls01.rdQLenPdf::14                    0                       # What read queue length does an incoming req see
system.mem_ctrls01.rdQLenPdf::15                    0                       # What read queue length does an incoming req see
system.mem_ctrls01.rdQLenPdf::16                    0                       # What read queue length does an incoming req see
system.mem_ctrls01.rdQLenPdf::17                    0                       # What read queue length does an incoming req see
system.mem_ctrls01.rdQLenPdf::18                    0                       # What read queue length does an incoming req see
system.mem_ctrls01.rdQLenPdf::19                    0                       # What read queue length does an incoming req see
system.mem_ctrls01.rdQLenPdf::20                    0                       # What read queue length does an incoming req see
system.mem_ctrls01.rdQLenPdf::21                    0                       # What read queue length does an incoming req see
system.mem_ctrls01.rdQLenPdf::22                    0                       # What read queue length does an incoming req see
system.mem_ctrls01.rdQLenPdf::23                    0                       # What read queue length does an incoming req see
system.mem_ctrls01.rdQLenPdf::24                    0                       # What read queue length does an incoming req see
system.mem_ctrls01.rdQLenPdf::25                    0                       # What read queue length does an incoming req see
system.mem_ctrls01.rdQLenPdf::26                    0                       # What read queue length does an incoming req see
system.mem_ctrls01.rdQLenPdf::27                    0                       # What read queue length does an incoming req see
system.mem_ctrls01.rdQLenPdf::28                    0                       # What read queue length does an incoming req see
system.mem_ctrls01.rdQLenPdf::29                    0                       # What read queue length does an incoming req see
system.mem_ctrls01.rdQLenPdf::30                    0                       # What read queue length does an incoming req see
system.mem_ctrls01.rdQLenPdf::31                    0                       # What read queue length does an incoming req see
system.mem_ctrls01.wrQLenPdf::0                     0                       # What write queue length does an incoming req see
system.mem_ctrls01.wrQLenPdf::1                     0                       # What write queue length does an incoming req see
system.mem_ctrls01.wrQLenPdf::2                     0                       # What write queue length does an incoming req see
system.mem_ctrls01.wrQLenPdf::3                     0                       # What write queue length does an incoming req see
system.mem_ctrls01.wrQLenPdf::4                     0                       # What write queue length does an incoming req see
system.mem_ctrls01.wrQLenPdf::5                     0                       # What write queue length does an incoming req see
system.mem_ctrls01.wrQLenPdf::6                     0                       # What write queue length does an incoming req see
system.mem_ctrls01.wrQLenPdf::7                     0                       # What write queue length does an incoming req see
system.mem_ctrls01.wrQLenPdf::8                     0                       # What write queue length does an incoming req see
system.mem_ctrls01.wrQLenPdf::9                     0                       # What write queue length does an incoming req see
system.mem_ctrls01.wrQLenPdf::10                    0                       # What write queue length does an incoming req see
system.mem_ctrls01.wrQLenPdf::11                    0                       # What write queue length does an incoming req see
system.mem_ctrls01.wrQLenPdf::12                    0                       # What write queue length does an incoming req see
system.mem_ctrls01.wrQLenPdf::13                    0                       # What write queue length does an incoming req see
system.mem_ctrls01.wrQLenPdf::14                    0                       # What write queue length does an incoming req see
system.mem_ctrls01.wrQLenPdf::15                    0                       # What write queue length does an incoming req see
system.mem_ctrls01.wrQLenPdf::16                    0                       # What write queue length does an incoming req see
system.mem_ctrls01.wrQLenPdf::17                    0                       # What write queue length does an incoming req see
system.mem_ctrls01.wrQLenPdf::18                    0                       # What write queue length does an incoming req see
system.mem_ctrls01.wrQLenPdf::19                    0                       # What write queue length does an incoming req see
system.mem_ctrls01.wrQLenPdf::20                    0                       # What write queue length does an incoming req see
system.mem_ctrls01.wrQLenPdf::21                    0                       # What write queue length does an incoming req see
system.mem_ctrls01.wrQLenPdf::22                    0                       # What write queue length does an incoming req see
system.mem_ctrls01.wrQLenPdf::23                    0                       # What write queue length does an incoming req see
system.mem_ctrls01.wrQLenPdf::24                    0                       # What write queue length does an incoming req see
system.mem_ctrls01.wrQLenPdf::25                    0                       # What write queue length does an incoming req see
system.mem_ctrls01.wrQLenPdf::26                    0                       # What write queue length does an incoming req see
system.mem_ctrls01.wrQLenPdf::27                    0                       # What write queue length does an incoming req see
system.mem_ctrls01.wrQLenPdf::28                    0                       # What write queue length does an incoming req see
system.mem_ctrls01.wrQLenPdf::29                    0                       # What write queue length does an incoming req see
system.mem_ctrls01.wrQLenPdf::30                    0                       # What write queue length does an incoming req see
system.mem_ctrls01.wrQLenPdf::31                    0                       # What write queue length does an incoming req see
system.mem_ctrls01.wrQLenPdf::32                    0                       # What write queue length does an incoming req see
system.mem_ctrls01.wrQLenPdf::33                    0                       # What write queue length does an incoming req see
system.mem_ctrls01.wrQLenPdf::34                    0                       # What write queue length does an incoming req see
system.mem_ctrls01.wrQLenPdf::35                    0                       # What write queue length does an incoming req see
system.mem_ctrls01.wrQLenPdf::36                    0                       # What write queue length does an incoming req see
system.mem_ctrls01.wrQLenPdf::37                    0                       # What write queue length does an incoming req see
system.mem_ctrls01.wrQLenPdf::38                    0                       # What write queue length does an incoming req see
system.mem_ctrls01.wrQLenPdf::39                    0                       # What write queue length does an incoming req see
system.mem_ctrls01.wrQLenPdf::40                    0                       # What write queue length does an incoming req see
system.mem_ctrls01.wrQLenPdf::41                    0                       # What write queue length does an incoming req see
system.mem_ctrls01.wrQLenPdf::42                    0                       # What write queue length does an incoming req see
system.mem_ctrls01.wrQLenPdf::43                    0                       # What write queue length does an incoming req see
system.mem_ctrls01.wrQLenPdf::44                    0                       # What write queue length does an incoming req see
system.mem_ctrls01.wrQLenPdf::45                    0                       # What write queue length does an incoming req see
system.mem_ctrls01.wrQLenPdf::46                    0                       # What write queue length does an incoming req see
system.mem_ctrls01.wrQLenPdf::47                    0                       # What write queue length does an incoming req see
system.mem_ctrls01.wrQLenPdf::48                    0                       # What write queue length does an incoming req see
system.mem_ctrls01.wrQLenPdf::49                    0                       # What write queue length does an incoming req see
system.mem_ctrls01.wrQLenPdf::50                    0                       # What write queue length does an incoming req see
system.mem_ctrls01.wrQLenPdf::51                    0                       # What write queue length does an incoming req see
system.mem_ctrls01.wrQLenPdf::52                    0                       # What write queue length does an incoming req see
system.mem_ctrls01.wrQLenPdf::53                    0                       # What write queue length does an incoming req see
system.mem_ctrls01.wrQLenPdf::54                    0                       # What write queue length does an incoming req see
system.mem_ctrls01.wrQLenPdf::55                    0                       # What write queue length does an incoming req see
system.mem_ctrls01.wrQLenPdf::56                    0                       # What write queue length does an incoming req see
system.mem_ctrls01.wrQLenPdf::57                    0                       # What write queue length does an incoming req see
system.mem_ctrls01.wrQLenPdf::58                    0                       # What write queue length does an incoming req see
system.mem_ctrls01.wrQLenPdf::59                    0                       # What write queue length does an incoming req see
system.mem_ctrls01.wrQLenPdf::60                    0                       # What write queue length does an incoming req see
system.mem_ctrls01.wrQLenPdf::61                    0                       # What write queue length does an incoming req see
system.mem_ctrls01.wrQLenPdf::62                    0                       # What write queue length does an incoming req see
system.mem_ctrls01.wrQLenPdf::63                    0                       # What write queue length does an incoming req see
system.mem_ctrls01.totQLat                          0                       # Total ticks spent queuing
system.mem_ctrls01.totMemAccLat                     0                       # Total ticks spent from burst creation until serviced by the DRAM
system.mem_ctrls01.totBusLat                        0                       # Total ticks spent in databus transfers
system.mem_ctrls01.avgQLat                        nan                       # Average queueing delay per DRAM burst
system.mem_ctrls01.avgBusLat                      nan                       # Average bus latency per DRAM burst
system.mem_ctrls01.avgMemAccLat                   nan                       # Average memory access latency per DRAM burst
system.mem_ctrls01.avgRdBW                       0.00                       # Average DRAM read bandwidth in MiByte/s
system.mem_ctrls01.avgWrBW                       0.00                       # Average achieved write bandwidth in MiByte/s
system.mem_ctrls01.avgRdBWSys                    0.00                       # Average system read bandwidth in MiByte/s
system.mem_ctrls01.avgWrBWSys                    0.00                       # Average system write bandwidth in MiByte/s
system.mem_ctrls01.peakBW                    12800.00                       # Theoretical peak bandwidth in MiByte/s
system.mem_ctrls01.busUtil                       0.00                       # Data bus utilization in percentage
system.mem_ctrls01.busUtilRead                   0.00                       # Data bus utilization in percentage for reads
system.mem_ctrls01.busUtilWrite                  0.00                       # Data bus utilization in percentage for writes
system.mem_ctrls01.avgRdQLen                     0.00                       # Average read queue length when enqueuing
system.mem_ctrls01.avgWrQLen                     0.00                       # Average write queue length when enqueuing
system.mem_ctrls01.readRowHits                      0                       # Number of row buffer hits during reads
system.mem_ctrls01.writeRowHits                     0                       # Number of row buffer hits during writes
system.mem_ctrls01.readRowHitRate                 nan                       # Row buffer hit rate for reads
system.mem_ctrls01.writeRowHitRate                nan                       # Row buffer hit rate for writes
system.mem_ctrls01.avgGap                         nan                       # Average gap between requests
system.mem_ctrls01.pageHitRate                    nan                       # Row buffer hit rate, read and write combined
system.mem_ctrls01_0.actEnergy                      0                       # Energy for activate commands per rank (pJ)
system.mem_ctrls01_0.preEnergy                      0                       # Energy for precharge commands per rank (pJ)
system.mem_ctrls01_0.readEnergy                     0                       # Energy for read commands per rank (pJ)
system.mem_ctrls01_0.writeEnergy                    0                       # Energy for write commands per rank (pJ)
system.mem_ctrls01_0.refreshEnergy       614640.000000                       # Energy for refresh commands per rank (pJ)
system.mem_ctrls01_0.actBackEnergy             112176                       # Energy for active background per rank (pJ)
system.mem_ctrls01_0.preBackEnergy            2997504                       # Energy for precharge background per rank (pJ)
system.mem_ctrls01_0.actPowerDownEnergy             0                       # Energy for active power-down per rank (pJ)
system.mem_ctrls01_0.prePowerDownEnergy       2889984                       # Energy for precharge power-down per rank (pJ)
system.mem_ctrls01_0.selfRefreshEnergy        8813520                       # Energy for self refresh per rank (pJ)
system.mem_ctrls01_0.totalEnergy             15427824                       # Total energy per rank (pJ)
system.mem_ctrls01_0.averagePower          308.556480                       # Core power per rank (mW)
system.mem_ctrls01_0.totalIdleTime               7526                       # Total Idle time Per DRAM Rank
system.mem_ctrls01_0.memoryStateTime::IDLE         7792                       # Time in different power states
system.mem_ctrls01_0.memoryStateTime::REF          260                       # Time in different power states
system.mem_ctrls01_0.memoryStateTime::SREF        34422                       # Time in different power states
system.mem_ctrls01_0.memoryStateTime::PRE_PDN         7526                       # Time in different power states
system.mem_ctrls01_0.memoryStateTime::ACT            0                       # Time in different power states
system.mem_ctrls01_0.memoryStateTime::ACT_PDN            0                       # Time in different power states
system.mem_ctrls01_1.actEnergy                      0                       # Energy for activate commands per rank (pJ)
system.mem_ctrls01_1.preEnergy                      0                       # Energy for precharge commands per rank (pJ)
system.mem_ctrls01_1.readEnergy                     0                       # Energy for read commands per rank (pJ)
system.mem_ctrls01_1.writeEnergy                    0                       # Energy for write commands per rank (pJ)
system.mem_ctrls01_1.refreshEnergy       614640.000000                       # Energy for refresh commands per rank (pJ)
system.mem_ctrls01_1.actBackEnergy             112176                       # Energy for active background per rank (pJ)
system.mem_ctrls01_1.preBackEnergy            2997504                       # Energy for precharge background per rank (pJ)
system.mem_ctrls01_1.actPowerDownEnergy             0                       # Energy for active power-down per rank (pJ)
system.mem_ctrls01_1.prePowerDownEnergy       2889984                       # Energy for precharge power-down per rank (pJ)
system.mem_ctrls01_1.selfRefreshEnergy        8813520                       # Energy for self refresh per rank (pJ)
system.mem_ctrls01_1.totalEnergy             15427824                       # Total energy per rank (pJ)
system.mem_ctrls01_1.averagePower          308.556480                       # Core power per rank (mW)
system.mem_ctrls01_1.totalIdleTime               7526                       # Total Idle time Per DRAM Rank
system.mem_ctrls01_1.memoryStateTime::IDLE         7792                       # Time in different power states
system.mem_ctrls01_1.memoryStateTime::REF          260                       # Time in different power states
system.mem_ctrls01_1.memoryStateTime::SREF        34422                       # Time in different power states
system.mem_ctrls01_1.memoryStateTime::PRE_PDN         7526                       # Time in different power states
system.mem_ctrls01_1.memoryStateTime::ACT            0                       # Time in different power states
system.mem_ctrls01_1.memoryStateTime::ACT_PDN            0                       # Time in different power states
system.mem_ctrls02.pwrStateResidencyTicks::UNDEFINED        50000                       # Cumulative time (in ticks) in various power states
system.mem_ctrls02.priorityMinLatency    0.000000000000                       # per QoS priority minimum request to response latency (s)
system.mem_ctrls02.priorityMaxLatency    0.000000000000                       # per QoS priority maximum request to response latency (s)
system.mem_ctrls02.numReadWriteTurnArounds            0                       # Number of turnarounds from READ to WRITE
system.mem_ctrls02.numWriteReadTurnArounds            0                       # Number of turnarounds from WRITE to READ
system.mem_ctrls02.numStayReadState                 2                       # Number of times bus staying in READ state
system.mem_ctrls02.numStayWriteState                0                       # Number of times bus staying in WRITE state
system.mem_ctrls02.readReqs                         0                       # Number of read requests accepted
system.mem_ctrls02.writeReqs                        0                       # Number of write requests accepted
system.mem_ctrls02.readBursts                       0                       # Number of DRAM read bursts, including those serviced by the write queue
system.mem_ctrls02.writeBursts                      0                       # Number of DRAM write bursts, including those merged in the write queue
system.mem_ctrls02.bytesReadDRAM                    0                       # Total number of bytes read from DRAM
system.mem_ctrls02.bytesReadWrQ                     0                       # Total number of bytes read from write queue
system.mem_ctrls02.bytesWritten                     0                       # Total number of bytes written to DRAM
system.mem_ctrls02.bytesReadSys                     0                       # Total read bytes from the system interface side
system.mem_ctrls02.bytesWrittenSys                  0                       # Total written bytes from the system interface side
system.mem_ctrls02.servicedByWrQ                    0                       # Number of DRAM read bursts serviced by the write queue
system.mem_ctrls02.mergedWrBursts                   0                       # Number of DRAM write bursts merged with an existing one
system.mem_ctrls02.neitherReadNorWriteReqs            0                       # Number of requests that are neither read nor write
system.mem_ctrls02.perBankRdBursts::0               0                       # Per bank write bursts
system.mem_ctrls02.perBankRdBursts::1               0                       # Per bank write bursts
system.mem_ctrls02.perBankRdBursts::2               0                       # Per bank write bursts
system.mem_ctrls02.perBankRdBursts::3               0                       # Per bank write bursts
system.mem_ctrls02.perBankRdBursts::4               0                       # Per bank write bursts
system.mem_ctrls02.perBankRdBursts::5               0                       # Per bank write bursts
system.mem_ctrls02.perBankRdBursts::6               0                       # Per bank write bursts
system.mem_ctrls02.perBankRdBursts::7               0                       # Per bank write bursts
system.mem_ctrls02.perBankRdBursts::8               0                       # Per bank write bursts
system.mem_ctrls02.perBankRdBursts::9               0                       # Per bank write bursts
system.mem_ctrls02.perBankRdBursts::10              0                       # Per bank write bursts
system.mem_ctrls02.perBankRdBursts::11              0                       # Per bank write bursts
system.mem_ctrls02.perBankRdBursts::12              0                       # Per bank write bursts
system.mem_ctrls02.perBankRdBursts::13              0                       # Per bank write bursts
system.mem_ctrls02.perBankRdBursts::14              0                       # Per bank write bursts
system.mem_ctrls02.perBankRdBursts::15              0                       # Per bank write bursts
system.mem_ctrls02.perBankWrBursts::0               0                       # Per bank write bursts
system.mem_ctrls02.perBankWrBursts::1               0                       # Per bank write bursts
system.mem_ctrls02.perBankWrBursts::2               0                       # Per bank write bursts
system.mem_ctrls02.perBankWrBursts::3               0                       # Per bank write bursts
system.mem_ctrls02.perBankWrBursts::4               0                       # Per bank write bursts
system.mem_ctrls02.perBankWrBursts::5               0                       # Per bank write bursts
system.mem_ctrls02.perBankWrBursts::6               0                       # Per bank write bursts
system.mem_ctrls02.perBankWrBursts::7               0                       # Per bank write bursts
system.mem_ctrls02.perBankWrBursts::8               0                       # Per bank write bursts
system.mem_ctrls02.perBankWrBursts::9               0                       # Per bank write bursts
system.mem_ctrls02.perBankWrBursts::10              0                       # Per bank write bursts
system.mem_ctrls02.perBankWrBursts::11              0                       # Per bank write bursts
system.mem_ctrls02.perBankWrBursts::12              0                       # Per bank write bursts
system.mem_ctrls02.perBankWrBursts::13              0                       # Per bank write bursts
system.mem_ctrls02.perBankWrBursts::14              0                       # Per bank write bursts
system.mem_ctrls02.perBankWrBursts::15              0                       # Per bank write bursts
system.mem_ctrls02.numRdRetry                       0                       # Number of times read queue was full causing retry
system.mem_ctrls02.numWrRetry                       0                       # Number of times write queue was full causing retry
system.mem_ctrls02.totGap                           0                       # Total gap between requests
system.mem_ctrls02.readPktSize::0                   0                       # Read request sizes (log2)
system.mem_ctrls02.readPktSize::1                   0                       # Read request sizes (log2)
system.mem_ctrls02.readPktSize::2                   0                       # Read request sizes (log2)
system.mem_ctrls02.readPktSize::3                   0                       # Read request sizes (log2)
system.mem_ctrls02.readPktSize::4                   0                       # Read request sizes (log2)
system.mem_ctrls02.readPktSize::5                   0                       # Read request sizes (log2)
system.mem_ctrls02.readPktSize::6                   0                       # Read request sizes (log2)
system.mem_ctrls02.writePktSize::0                  0                       # Write request sizes (log2)
system.mem_ctrls02.writePktSize::1                  0                       # Write request sizes (log2)
system.mem_ctrls02.writePktSize::2                  0                       # Write request sizes (log2)
system.mem_ctrls02.writePktSize::3                  0                       # Write request sizes (log2)
system.mem_ctrls02.writePktSize::4                  0                       # Write request sizes (log2)
system.mem_ctrls02.writePktSize::5                  0                       # Write request sizes (log2)
system.mem_ctrls02.writePktSize::6                  0                       # Write request sizes (log2)
system.mem_ctrls02.rdQLenPdf::0                     0                       # What read queue length does an incoming req see
system.mem_ctrls02.rdQLenPdf::1                     0                       # What read queue length does an incoming req see
system.mem_ctrls02.rdQLenPdf::2                     0                       # What read queue length does an incoming req see
system.mem_ctrls02.rdQLenPdf::3                     0                       # What read queue length does an incoming req see
system.mem_ctrls02.rdQLenPdf::4                     0                       # What read queue length does an incoming req see
system.mem_ctrls02.rdQLenPdf::5                     0                       # What read queue length does an incoming req see
system.mem_ctrls02.rdQLenPdf::6                     0                       # What read queue length does an incoming req see
system.mem_ctrls02.rdQLenPdf::7                     0                       # What read queue length does an incoming req see
system.mem_ctrls02.rdQLenPdf::8                     0                       # What read queue length does an incoming req see
system.mem_ctrls02.rdQLenPdf::9                     0                       # What read queue length does an incoming req see
system.mem_ctrls02.rdQLenPdf::10                    0                       # What read queue length does an incoming req see
system.mem_ctrls02.rdQLenPdf::11                    0                       # What read queue length does an incoming req see
system.mem_ctrls02.rdQLenPdf::12                    0                       # What read queue length does an incoming req see
system.mem_ctrls02.rdQLenPdf::13                    0                       # What read queue length does an incoming req see
system.mem_ctrls02.rdQLenPdf::14                    0                       # What read queue length does an incoming req see
system.mem_ctrls02.rdQLenPdf::15                    0                       # What read queue length does an incoming req see
system.mem_ctrls02.rdQLenPdf::16                    0                       # What read queue length does an incoming req see
system.mem_ctrls02.rdQLenPdf::17                    0                       # What read queue length does an incoming req see
system.mem_ctrls02.rdQLenPdf::18                    0                       # What read queue length does an incoming req see
system.mem_ctrls02.rdQLenPdf::19                    0                       # What read queue length does an incoming req see
system.mem_ctrls02.rdQLenPdf::20                    0                       # What read queue length does an incoming req see
system.mem_ctrls02.rdQLenPdf::21                    0                       # What read queue length does an incoming req see
system.mem_ctrls02.rdQLenPdf::22                    0                       # What read queue length does an incoming req see
system.mem_ctrls02.rdQLenPdf::23                    0                       # What read queue length does an incoming req see
system.mem_ctrls02.rdQLenPdf::24                    0                       # What read queue length does an incoming req see
system.mem_ctrls02.rdQLenPdf::25                    0                       # What read queue length does an incoming req see
system.mem_ctrls02.rdQLenPdf::26                    0                       # What read queue length does an incoming req see
system.mem_ctrls02.rdQLenPdf::27                    0                       # What read queue length does an incoming req see
system.mem_ctrls02.rdQLenPdf::28                    0                       # What read queue length does an incoming req see
system.mem_ctrls02.rdQLenPdf::29                    0                       # What read queue length does an incoming req see
system.mem_ctrls02.rdQLenPdf::30                    0                       # What read queue length does an incoming req see
system.mem_ctrls02.rdQLenPdf::31                    0                       # What read queue length does an incoming req see
system.mem_ctrls02.wrQLenPdf::0                     0                       # What write queue length does an incoming req see
system.mem_ctrls02.wrQLenPdf::1                     0                       # What write queue length does an incoming req see
system.mem_ctrls02.wrQLenPdf::2                     0                       # What write queue length does an incoming req see
system.mem_ctrls02.wrQLenPdf::3                     0                       # What write queue length does an incoming req see
system.mem_ctrls02.wrQLenPdf::4                     0                       # What write queue length does an incoming req see
system.mem_ctrls02.wrQLenPdf::5                     0                       # What write queue length does an incoming req see
system.mem_ctrls02.wrQLenPdf::6                     0                       # What write queue length does an incoming req see
system.mem_ctrls02.wrQLenPdf::7                     0                       # What write queue length does an incoming req see
system.mem_ctrls02.wrQLenPdf::8                     0                       # What write queue length does an incoming req see
system.mem_ctrls02.wrQLenPdf::9                     0                       # What write queue length does an incoming req see
system.mem_ctrls02.wrQLenPdf::10                    0                       # What write queue length does an incoming req see
system.mem_ctrls02.wrQLenPdf::11                    0                       # What write queue length does an incoming req see
system.mem_ctrls02.wrQLenPdf::12                    0                       # What write queue length does an incoming req see
system.mem_ctrls02.wrQLenPdf::13                    0                       # What write queue length does an incoming req see
system.mem_ctrls02.wrQLenPdf::14                    0                       # What write queue length does an incoming req see
system.mem_ctrls02.wrQLenPdf::15                    0                       # What write queue length does an incoming req see
system.mem_ctrls02.wrQLenPdf::16                    0                       # What write queue length does an incoming req see
system.mem_ctrls02.wrQLenPdf::17                    0                       # What write queue length does an incoming req see
system.mem_ctrls02.wrQLenPdf::18                    0                       # What write queue length does an incoming req see
system.mem_ctrls02.wrQLenPdf::19                    0                       # What write queue length does an incoming req see
system.mem_ctrls02.wrQLenPdf::20                    0                       # What write queue length does an incoming req see
system.mem_ctrls02.wrQLenPdf::21                    0                       # What write queue length does an incoming req see
system.mem_ctrls02.wrQLenPdf::22                    0                       # What write queue length does an incoming req see
system.mem_ctrls02.wrQLenPdf::23                    0                       # What write queue length does an incoming req see
system.mem_ctrls02.wrQLenPdf::24                    0                       # What write queue length does an incoming req see
system.mem_ctrls02.wrQLenPdf::25                    0                       # What write queue length does an incoming req see
system.mem_ctrls02.wrQLenPdf::26                    0                       # What write queue length does an incoming req see
system.mem_ctrls02.wrQLenPdf::27                    0                       # What write queue length does an incoming req see
system.mem_ctrls02.wrQLenPdf::28                    0                       # What write queue length does an incoming req see
system.mem_ctrls02.wrQLenPdf::29                    0                       # What write queue length does an incoming req see
system.mem_ctrls02.wrQLenPdf::30                    0                       # What write queue length does an incoming req see
system.mem_ctrls02.wrQLenPdf::31                    0                       # What write queue length does an incoming req see
system.mem_ctrls02.wrQLenPdf::32                    0                       # What write queue length does an incoming req see
system.mem_ctrls02.wrQLenPdf::33                    0                       # What write queue length does an incoming req see
system.mem_ctrls02.wrQLenPdf::34                    0                       # What write queue length does an incoming req see
system.mem_ctrls02.wrQLenPdf::35                    0                       # What write queue length does an incoming req see
system.mem_ctrls02.wrQLenPdf::36                    0                       # What write queue length does an incoming req see
system.mem_ctrls02.wrQLenPdf::37                    0                       # What write queue length does an incoming req see
system.mem_ctrls02.wrQLenPdf::38                    0                       # What write queue length does an incoming req see
system.mem_ctrls02.wrQLenPdf::39                    0                       # What write queue length does an incoming req see
system.mem_ctrls02.wrQLenPdf::40                    0                       # What write queue length does an incoming req see
system.mem_ctrls02.wrQLenPdf::41                    0                       # What write queue length does an incoming req see
system.mem_ctrls02.wrQLenPdf::42                    0                       # What write queue length does an incoming req see
system.mem_ctrls02.wrQLenPdf::43                    0                       # What write queue length does an incoming req see
system.mem_ctrls02.wrQLenPdf::44                    0                       # What write queue length does an incoming req see
system.mem_ctrls02.wrQLenPdf::45                    0                       # What write queue length does an incoming req see
system.mem_ctrls02.wrQLenPdf::46                    0                       # What write queue length does an incoming req see
system.mem_ctrls02.wrQLenPdf::47                    0                       # What write queue length does an incoming req see
system.mem_ctrls02.wrQLenPdf::48                    0                       # What write queue length does an incoming req see
system.mem_ctrls02.wrQLenPdf::49                    0                       # What write queue length does an incoming req see
system.mem_ctrls02.wrQLenPdf::50                    0                       # What write queue length does an incoming req see
system.mem_ctrls02.wrQLenPdf::51                    0                       # What write queue length does an incoming req see
system.mem_ctrls02.wrQLenPdf::52                    0                       # What write queue length does an incoming req see
system.mem_ctrls02.wrQLenPdf::53                    0                       # What write queue length does an incoming req see
system.mem_ctrls02.wrQLenPdf::54                    0                       # What write queue length does an incoming req see
system.mem_ctrls02.wrQLenPdf::55                    0                       # What write queue length does an incoming req see
system.mem_ctrls02.wrQLenPdf::56                    0                       # What write queue length does an incoming req see
system.mem_ctrls02.wrQLenPdf::57                    0                       # What write queue length does an incoming req see
system.mem_ctrls02.wrQLenPdf::58                    0                       # What write queue length does an incoming req see
system.mem_ctrls02.wrQLenPdf::59                    0                       # What write queue length does an incoming req see
system.mem_ctrls02.wrQLenPdf::60                    0                       # What write queue length does an incoming req see
system.mem_ctrls02.wrQLenPdf::61                    0                       # What write queue length does an incoming req see
system.mem_ctrls02.wrQLenPdf::62                    0                       # What write queue length does an incoming req see
system.mem_ctrls02.wrQLenPdf::63                    0                       # What write queue length does an incoming req see
system.mem_ctrls02.totQLat                          0                       # Total ticks spent queuing
system.mem_ctrls02.totMemAccLat                     0                       # Total ticks spent from burst creation until serviced by the DRAM
system.mem_ctrls02.totBusLat                        0                       # Total ticks spent in databus transfers
system.mem_ctrls02.avgQLat                        nan                       # Average queueing delay per DRAM burst
system.mem_ctrls02.avgBusLat                      nan                       # Average bus latency per DRAM burst
system.mem_ctrls02.avgMemAccLat                   nan                       # Average memory access latency per DRAM burst
system.mem_ctrls02.avgRdBW                       0.00                       # Average DRAM read bandwidth in MiByte/s
system.mem_ctrls02.avgWrBW                       0.00                       # Average achieved write bandwidth in MiByte/s
system.mem_ctrls02.avgRdBWSys                    0.00                       # Average system read bandwidth in MiByte/s
system.mem_ctrls02.avgWrBWSys                    0.00                       # Average system write bandwidth in MiByte/s
system.mem_ctrls02.peakBW                    12800.00                       # Theoretical peak bandwidth in MiByte/s
system.mem_ctrls02.busUtil                       0.00                       # Data bus utilization in percentage
system.mem_ctrls02.busUtilRead                   0.00                       # Data bus utilization in percentage for reads
system.mem_ctrls02.busUtilWrite                  0.00                       # Data bus utilization in percentage for writes
system.mem_ctrls02.avgRdQLen                     0.00                       # Average read queue length when enqueuing
system.mem_ctrls02.avgWrQLen                     0.00                       # Average write queue length when enqueuing
system.mem_ctrls02.readRowHits                      0                       # Number of row buffer hits during reads
system.mem_ctrls02.writeRowHits                     0                       # Number of row buffer hits during writes
system.mem_ctrls02.readRowHitRate                 nan                       # Row buffer hit rate for reads
system.mem_ctrls02.writeRowHitRate                nan                       # Row buffer hit rate for writes
system.mem_ctrls02.avgGap                         nan                       # Average gap between requests
system.mem_ctrls02.pageHitRate                    nan                       # Row buffer hit rate, read and write combined
system.mem_ctrls02_0.actEnergy                      0                       # Energy for activate commands per rank (pJ)
system.mem_ctrls02_0.preEnergy                      0                       # Energy for precharge commands per rank (pJ)
system.mem_ctrls02_0.readEnergy                     0                       # Energy for read commands per rank (pJ)
system.mem_ctrls02_0.writeEnergy                    0                       # Energy for write commands per rank (pJ)
system.mem_ctrls02_0.refreshEnergy       614640.000000                       # Energy for refresh commands per rank (pJ)
system.mem_ctrls02_0.actBackEnergy             112176                       # Energy for active background per rank (pJ)
system.mem_ctrls02_0.preBackEnergy            2997504                       # Energy for precharge background per rank (pJ)
system.mem_ctrls02_0.actPowerDownEnergy             0                       # Energy for active power-down per rank (pJ)
system.mem_ctrls02_0.prePowerDownEnergy       2889984                       # Energy for precharge power-down per rank (pJ)
system.mem_ctrls02_0.selfRefreshEnergy        8813520                       # Energy for self refresh per rank (pJ)
system.mem_ctrls02_0.totalEnergy             15427824                       # Total energy per rank (pJ)
system.mem_ctrls02_0.averagePower          308.556480                       # Core power per rank (mW)
system.mem_ctrls02_0.totalIdleTime               7526                       # Total Idle time Per DRAM Rank
system.mem_ctrls02_0.memoryStateTime::IDLE         7792                       # Time in different power states
system.mem_ctrls02_0.memoryStateTime::REF          260                       # Time in different power states
system.mem_ctrls02_0.memoryStateTime::SREF        34422                       # Time in different power states
system.mem_ctrls02_0.memoryStateTime::PRE_PDN         7526                       # Time in different power states
system.mem_ctrls02_0.memoryStateTime::ACT            0                       # Time in different power states
system.mem_ctrls02_0.memoryStateTime::ACT_PDN            0                       # Time in different power states
system.mem_ctrls02_1.actEnergy                      0                       # Energy for activate commands per rank (pJ)
system.mem_ctrls02_1.preEnergy                      0                       # Energy for precharge commands per rank (pJ)
system.mem_ctrls02_1.readEnergy                     0                       # Energy for read commands per rank (pJ)
system.mem_ctrls02_1.writeEnergy                    0                       # Energy for write commands per rank (pJ)
system.mem_ctrls02_1.refreshEnergy       614640.000000                       # Energy for refresh commands per rank (pJ)
system.mem_ctrls02_1.actBackEnergy             112176                       # Energy for active background per rank (pJ)
system.mem_ctrls02_1.preBackEnergy            2997504                       # Energy for precharge background per rank (pJ)
system.mem_ctrls02_1.actPowerDownEnergy             0                       # Energy for active power-down per rank (pJ)
system.mem_ctrls02_1.prePowerDownEnergy       2889984                       # Energy for precharge power-down per rank (pJ)
system.mem_ctrls02_1.selfRefreshEnergy        8813520                       # Energy for self refresh per rank (pJ)
system.mem_ctrls02_1.totalEnergy             15427824                       # Total energy per rank (pJ)
[...]
system.ruby.network.netifs23.pwrStateResidencyTicks::UNDEFINED        50000                       # Cumulative time (in ticks) in various power states
system.ruby.network.netifs24.pwrStateResidencyTicks::UNDEFINED        50000                       # Cumulative time (in ticks) in various power states
system.ruby.network.netifs25.pwrStateResidencyTicks::UNDEFINED        50000                       # Cumulative time (in ticks) in various power states
system.ruby.network.netifs26.pwrStateResidencyTicks::UNDEFINED        50000                       # Cumulative time (in ticks) in various power states
system.ruby.network.netifs27.pwrStateResidencyTicks::UNDEFINED        50000                       # Cumulative time (in ticks) in various power states
system.ruby.network.netifs28.pwrStateResidencyTicks::UNDEFINED        50000                       # Cumulative time (in ticks) in various power states
system.ruby.network.netifs29.pwrStateResidencyTicks::UNDEFINED        50000                       # Cumulative time (in ticks) in various power states
system.ruby.network.netifs30.pwrStateResidencyTicks::UNDEFINED        50000                       # Cumulative time (in ticks) in various power states
system.ruby.network.netifs31.pwrStateResidencyTicks::UNDEFINED        50000                       # Cumulative time (in ticks) in various power states
system.ruby.network.pwrStateResidencyTicks::UNDEFINED        50000                       # Cumulative time (in ticks) in various power states
system.ruby.network.packets_received     |      187124     44.48%     44.48% |      186257     44.27%     88.75% |       47353     11.25%    100.00%
system.ruby.network.packets_received::total       420734                      
system.ruby.network.packets_injected     |      187167     44.47%     44.47% |      186306     44.26%     88.73% |       47420     11.27%    100.00%
system.ruby.network.packets_injected::total       420893                      
system.ruby.network.packet_network_latency |     1944579                       |     1771060                       |     3196425                      
system.ruby.network.packet_queueing_latency |      194950                       |      138149                       |   879778194                      
system.ruby.network.average_packet_vnet_latency |   10.391927                       |    9.508690                       |   67.502059                      
system.ruby.network.average_packet_vqueue_latency |    1.041823                       |    0.741712                       |18579.143750                      
system.ruby.network.average_packet_network_latency    16.428584                      
system.ruby.network.average_packet_queueing_latency  2091.847326                      
system.ruby.network.average_packet_latency  2108.275911                      
system.ruby.network.flits_received       |      187124     23.40%     23.40% |      186257     23.29%     46.68% |      426456     53.32%    100.00%
system.ruby.network.flits_received::total       799837                      
system.ruby.network.flits_injected       |      187167     23.39%     23.39% |      186306     23.28%     46.67% |      426780     53.33%    100.00%
system.ruby.network.flits_injected::total       800253                      
system.ruby.network.flit_network_latency |     1944579                       |     1771060                       |    16672523                      
system.ruby.network.flit_queueing_latency |      194950                       |      138149                       |  7928392879                      
system.ruby.network.priority_received    |      187124     23.40%     23.40% |      186257     23.29%     46.68% |      426456     53.32%    100.00%
system.ruby.network.priority_received::total       799837                      
system.ruby.network.priority_network_latency |     1944579                       |     1771060                       |    16672523                      
system.ruby.network.priority_queueing_latency |      194950                       |      138149                       |  7928392879                      
system.ruby.network.average_priority_network_latency |   10.391927                       |    9.508690                       |   39.095529                      
system.ruby.network.average_priority_queueing_latency |    1.041823                       |    0.741712                       |18591.350289                      
system.ruby.network.average_flit_vnet_latency |   10.391927                       |    9.508690                       |   39.095529                      
system.ruby.network.average_flit_vqueue_latency |    1.041823                       |    0.741712                       |18591.350289                      
system.ruby.network.average_flit_network_latency    25.490396                      
system.ruby.network.average_flit_queueing_latency  9912.927231                      
system.ruby.network.average_flit_latency  9938.417628                      
system.ruby.network.ext_in_link_utilization       799933                      
system.ruby.network.ext_out_link_utilization       799853                      
system.ruby.network.int_link_utilization      1199833                      
system.ruby.network.avg_link_utilization    55.992380                      
system.ruby.network.avg_vc_load          |    4.197140      7.50%      7.50% |    3.703160      6.61%     14.11% |    2.968780      5.30%     19.41% |    2.232000      3.99%     23.40% |    4.471060      7.99%     31.38% |    3.669240      6.55%     37.94% |    2.863440      5.11%     43.05% |    2.026940      3.62%     46.67% |   10.690720     19.09%     65.76% |    7.631180     13.63%     79.39% |    6.071100     10.84%     90.24% |    5.467620      9.76%    100.00%
system.ruby.network.avg_vc_load::total      55.992380                      
system.ruby.network.average_hops             1.499977                      
system.sys_port_proxy.pwrStateResidencyTicks::UNDEFINED        50000                       # Cumulative time (in ticks) in various power states
system.ruby.LD.latency_hist_seqr::bucket_size            1                      
system.ruby.LD.latency_hist_seqr::max_bucket            9                      
system.ruby.LD.latency_hist_seqr::samples       187180                      
system.ruby.LD.latency_hist_seqr::mean              1                      
system.ruby.LD.latency_hist_seqr::gmean             1                      
system.ruby.LD.latency_hist_seqr         |           0      0.00%      0.00% |      187180    100.00%    100.00% |           0      0.00%    100.00% |           0      0.00%    100.00% |           0      0.00%    100.00% |           0      0.00%    100.00% |           0      0.00%    100.00% |           0      0.00%    100.00% |           0      0.00%    100.00% |           0      0.00%    100.00%
system.ruby.LD.latency_hist_seqr::total        187180                      
system.ruby.LD.hit_latency_hist_seqr::bucket_size            1                      
system.ruby.LD.hit_latency_hist_seqr::max_bucket            9                      
system.ruby.LD.hit_latency_hist_seqr::samples       187180                      
system.ruby.LD.hit_latency_hist_seqr::mean            1                      
system.ruby.LD.hit_latency_hist_seqr::gmean            1                      
system.ruby.LD.hit_latency_hist_seqr     |           0      0.00%      0.00% |      187180    100.00%    100.00% |           0      0.00%    100.00% |           0      0.00%    100.00% |           0      0.00%    100.00% |           0      0.00%    100.00% |           0      0.00%    100.00% |           0      0.00%    100.00% |           0      0.00%    100.00% |           0      0.00%    100.00%
system.ruby.LD.hit_latency_hist_seqr::total       187180                      
system.ruby.ST.latency_hist_seqr::bucket_size            1                      
system.ruby.ST.latency_hist_seqr::max_bucket            9                      
system.ruby.ST.latency_hist_seqr::samples       186051                      
system.ruby.ST.latency_hist_seqr::mean              1                      
system.ruby.ST.latency_hist_seqr::gmean             1                      
system.ruby.ST.latency_hist_seqr         |           0      0.00%      0.00% |      186051    100.00%    100.00% |           0      0.00%    100.00% |           0      0.00%    100.00% |           0      0.00%    100.00% |           0      0.00%    100.00% |           0      0.00%    100.00% |           0      0.00%    100.00% |           0      0.00%    100.00% |           0      0.00%    100.00%
system.ruby.ST.latency_hist_seqr::total        186051                      
system.ruby.ST.hit_latency_hist_seqr::bucket_size            1                      
system.ruby.ST.hit_latency_hist_seqr::max_bucket            9                      
system.ruby.ST.hit_latency_hist_seqr::samples       186051                      
system.ruby.ST.hit_latency_hist_seqr::mean            1                      
system.ruby.ST.hit_latency_hist_seqr::gmean            1                      
system.ruby.ST.hit_latency_hist_seqr     |           0      0.00%      0.00% |      186051    100.00%    100.00% |           0      0.00%    100.00% |           0      0.00%    100.00% |           0      0.00%    100.00% |           0      0.00%    100.00% |           0      0.00%    100.00% |           0      0.00%    100.00% |           0      0.00%    100.00% |           0      0.00%    100.00%
system.ruby.ST.hit_latency_hist_seqr::total       186051                      
system.ruby.IFETCH.latency_hist_seqr::bucket_size            1                      
system.ruby.IFETCH.latency_hist_seqr::max_bucket            9                      
system.ruby.IFETCH.latency_hist_seqr::samples       186318                      
system.ruby.IFETCH.latency_hist_seqr::mean            1                      
system.ruby.IFETCH.latency_hist_seqr::gmean            1                      
system.ruby.IFETCH.latency_hist_seqr     |           0      0.00%      0.00% |      186318    100.00%    100.00% |           0      0.00%    100.00% |           0      0.00%    100.00% |           0      0.00%    100.00% |           0      0.00%    100.00% |           0      0.00%    100.00% |           0      0.00%    100.00% |           0      0.00%    100.00% |           0      0.00%    100.00%
system.ruby.IFETCH.latency_hist_seqr::total       186318                      
system.ruby.IFETCH.hit_latency_hist_seqr::bucket_size            1                      
system.ruby.IFETCH.hit_latency_hist_seqr::max_bucket            9                      
system.ruby.IFETCH.hit_latency_hist_seqr::samples       186318                      
system.ruby.IFETCH.hit_latency_hist_seqr::mean            1                      
system.ruby.IFETCH.hit_latency_hist_seqr::gmean            1                      
system.ruby.IFETCH.hit_latency_hist_seqr |           0      0.00%      0.00% |      186318    100.00%    100.00% |           0      0.00%    100.00% |           0      0.00%    100.00% |           0      0.00%    100.00% |           0      0.00%    100.00% |           0      0.00%    100.00% |           0      0.00%    100.00% |           0      0.00%    100.00% |           0      0.00%    100.00%
system.ruby.IFETCH.hit_latency_hist_seqr::total       186318                      
system.ruby.Directory_Controller.Receive_Request |       11851      6.33%      6.33% |       11635      6.22%     12.55% |       11606      6.20%     18.75% |       11855      6.34%     25.09% |       11599      6.20%     31.29% |       11717      6.26%     37.55% |       11608      6.20%     43.75% |       11703      6.25%     50.01% |       11668      6.24%     56.24% |       11548      6.17%     62.42% |       11530      6.16%     68.58% |       11725      6.27%     74.84% |       11689      6.25%     81.09% |       11738      6.27%     87.36% |       11732      6.27%     93.63% |       11914      6.37%    100.00%
system.ruby.Directory_Controller.Receive_Request::total       187118                      
system.ruby.Directory_Controller.Receive_Forward |       11482      6.16%      6.16% |       11630      6.24%     12.41% |       11544      6.20%     18.61% |       11701      6.28%     24.89% |       11638      6.25%     31.14% |       11694      6.28%     37.42% |       11606      6.23%     43.65% |       11556      6.20%     49.85% |       11632      6.25%     56.10% |       11713      6.29%     62.38% |       11917      6.40%     68.78% |       11795      6.33%     75.12% |       11600      6.23%     81.34% |       11521      6.19%     87.53% |       11734      6.30%     93.83% |       11494      6.17%    100.00%
system.ruby.Directory_Controller.Receive_Forward::total       186257                      
system.ruby.Directory_Controller.Receive_Response |        2959      6.25%      6.25% |        2968      6.27%     12.52% |        2981      6.30%     18.81% |        2935      6.20%     25.01% |        2970      6.27%     31.28% |        2952      6.23%     37.52% |        2974      6.28%     43.80% |        2968      6.27%     50.06% |        2963      6.26%     56.32% |        2968      6.27%     62.59% |        2947      6.22%     68.81% |        2939      6.21%     75.02% |        2964      6.26%     81.28% |        2968      6.27%     87.55% |        2945      6.22%     93.77% |        2952      6.23%    100.00%
system.ruby.Directory_Controller.Receive_Response::total        47353                      
system.ruby.Directory_Controller.I.Receive_Request |       11851      6.33%      6.33% |       11635      6.22%     12.55% |       11606      6.20%     18.75% |       11855      6.34%     25.09% |       11599      6.20%     31.29% |       11717      6.26%     37.55% |       11608      6.20%     43.75% |       11703      6.25%     50.01% |       11668      6.24%     56.24% |       11548      6.17%     62.42% |       11530      6.16%     68.58% |       11725      6.27%     74.84% |       11689      6.25%     81.09% |       11738      6.27%     87.36% |       11732      6.27%     93.63% |       11914      6.37%    100.00%
system.ruby.Directory_Controller.I.Receive_Request::total       187118                      
system.ruby.Directory_Controller.I.Receive_Forward |       11482      6.16%      6.16% |       11630      6.24%     12.41% |       11544      6.20%     18.61% |       11701      6.28%     24.89% |       11638      6.25%     31.14% |       11694      6.28%     37.42% |       11606      6.23%     43.65% |       11556      6.20%     49.85% |       11632      6.25%     56.10% |       11713      6.29%     62.38% |       11917      6.40%     68.78% |       11795      6.33%     75.12% |       11600      6.23%     81.34% |       11521      6.19%     87.53% |       11734      6.30%     93.83% |       11494      6.17%    100.00%
system.ruby.Directory_Controller.I.Receive_Forward::total       186257                      
system.ruby.Directory_Controller.I.Receive_Response |        2959      6.25%      6.25% |        2968      6.27%     12.52% |        2981      6.30%     18.81% |        2935      6.20%     25.01% |        2970      6.27%     31.28% |        2952      6.23%     37.52% |        2974      6.28%     43.80% |        2968      6.27%     50.06% |        2963      6.26%     56.32% |        2968      6.27%     62.59% |        2947      6.22%     68.81% |        2939      6.21%     75.02% |        2964      6.26%     81.28% |        2968      6.27%     87.55% |        2945      6.22%     93.77% |        2952      6.23%    100.00%
system.ruby.Directory_Controller.I.Receive_Response::total        47353                      
system.ruby.L1Cache_Controller.Request   |       11638      6.22%      6.22% |       11609      6.20%     12.42% |       11858      6.34%     18.75% |       11854      6.33%     25.09% |       11721      6.26%     31.35% |       11609      6.20%     37.55% |       11707      6.25%     43.81% |       11601      6.20%     50.00% |       11552      6.17%     56.18% |       11534      6.16%     62.34% |       11732      6.27%     68.61% |       11672      6.24%     74.84% |       11742      6.27%     81.11% |       11739      6.27%     87.39% |       11920      6.37%     93.75% |       11692      6.25%    100.00%
system.ruby.L1Cache_Controller.Request::total       187180                      
system.ruby.L1Cache_Controller.Forward   |       11635      6.24%      6.24% |       11548      6.20%     12.44% |       11704      6.28%     18.72% |       11487      6.17%     24.89% |       11700      6.28%     31.17% |       11610      6.23%     37.40% |       11561      6.20%     43.61% |       11640      6.25%     49.85% |       11713      6.29%     56.14% |       11921      6.40%     62.54% |       11797      6.33%     68.87% |       11634      6.24%     75.11% |       11523      6.18%     81.30% |       11742      6.30%     87.60% |       11497      6.17%     93.77% |       11606      6.23%    100.00%
system.ruby.L1Cache_Controller.Forward::total       186318                      
system.ruby.L1Cache_Controller.Response  |       11565      6.22%      6.22% |       11717      6.30%     12.51% |       11484      6.17%     18.69% |       11616      6.24%     24.93% |       11567      6.22%     31.15% |       11678      6.28%     37.42% |       11605      6.24%     43.66% |       11812      6.35%     50.01% |       11640      6.26%     56.27% |       11510      6.19%     62.45% |       11522      6.19%     68.65% |       11773      6.33%     74.97% |       11625      6.25%     81.22% |       11543      6.20%     87.43% |       11566      6.22%     93.64% |       11828      6.36%    100.00%
system.ruby.L1Cache_Controller.Response::total       186051                      
system.ruby.L1Cache_Controller.I.Request |       11638      6.22%      6.22% |       11609      6.20%     12.42% |       11858      6.34%     18.75% |       11854      6.33%     25.09% |       11721      6.26%     31.35% |       11609      6.20%     37.55% |       11707      6.25%     43.81% |       11601      6.20%     50.00% |       11552      6.17%     56.18% |       11534      6.16%     62.34% |       11732      6.27%     68.61% |       11672      6.24%     74.84% |       11742      6.27%     81.11% |       11739      6.27%     87.39% |       11920      6.37%     93.75% |       11692      6.25%    100.00%
system.ruby.L1Cache_Controller.I.Request::total       187180                      
system.ruby.L1Cache_Controller.I.Forward |       11635      6.24%      6.24% |       11548      6.20%     12.44% |       11704      6.28%     18.72% |       11487      6.17%     24.89% |       11700      6.28%     31.17% |       11610      6.23%     37.40% |       11561      6.20%     43.61% |       11640      6.25%     49.85% |       11713      6.29%     56.14% |       11921      6.40%     62.54% |       11797      6.33%     68.87% |       11634      6.24%     75.11% |       11523      6.18%     81.30% |       11742      6.30%     87.60% |       11497      6.17%     93.77% |       11606      6.23%    100.00%
system.ruby.L1Cache_Controller.I.Forward::total       186318                      
system.ruby.L1Cache_Controller.I.Response |       11565      6.22%      6.22% |       11717      6.30%     12.51% |       11484      6.17%     18.69% |       11616      6.24%     24.93% |       11567      6.22%     31.15% |       11678      6.28%     37.42% |       11605      6.24%     43.66% |       11812      6.35%     50.01% |       11640      6.26%     56.27% |       11510      6.19%     62.45% |       11522      6.19%     68.65% |       11773      6.33%     74.97% |       11625      6.25%     81.22% |       11543      6.20%     87.43% |       11566      6.22%     93.64% |       11828      6.36%    100.00%
system.ruby.L1Cache_Controller.I.Response::total       186051                      

---------- End Simulation Statistics   ----------
